version 2
run General-0-20180816-22:33:24-8524
attr configname General
attr datetime 20180816-22:33:24
attr experiment General
attr inifile omnetpp2.ini
attr iterationvars ""
attr iterationvarsf ""
attr measurement ""
attr network org
attr processid 8524
attr repetition 0
attr replication #0
attr resultdir results
attr runnumber 0
attr seedset 0
param *.numHosts 16
param **.mobileHost[*].mobilityType "\"StaticGridMobility\""
param **.mobileHost[*].mobility.numHosts 16
param **.mobileHost[*].mobility.marginX 10m
param **.mobileHost[*].mobility.marginY 10m
param **.wlan[*].bitrate 54Mbps
param **.mac.maxQueueSize 15
param *.radiomedium.typename "\"ApskScalarRadioMedium\""
param *.radioMedium.backgroundNoise.power -90dBm
param *.radioMedium.mediumLimitCache.carrierFrequency 2GHz
param **.wlan[0].radio.typename "\"ApskScalarRadio\""
param **.wlan[0].radio.carrierFrequency 2.412GHz
param **.wlan[0].radio.bandwidth 2MHz
param **.wlan[0].radio.transmitter.power 1mW
param **.wlan[0].radio.transmitter.preambleDuration 10us
param **.wlan[0].radio.transmitter.headerLength 0b
param **.wlan[0].radio.receiver.sensitivity -85dBm
param **.wlan[0].radio.receiver.energyDetection -85dBm
param **.wlan[0].radio.receiver.snirThreshold 4dB
param **.wlan[0].radio.displayCommunicationRange true
param *.visualizer.mediumVisualizer.displaySignals true
param *.visualizer.physicalLinkVisualizer.displayLinks true
param **.mobileHost[0].numPingApps 1
param **.mobileHost[0].pingApp[0].destAddr "\"10.0.0.31\""
param **.mobileHost[0].pingApp[0].startTime 0s
param **.pingApp[*].printPing true
param **.mobileHost[*].routingProtocol "\"OLSR_ETX\""
param **.networkConfigurator.config "xml(\"<config><interface hosts='*' address='10.0.0.x' netmask='255.255.255.0'/></config>\")"
param **.constraintAreaMinX 0m
param **.constraintAreaMinY 0m
param **.constraintAreaMaxX 800m
param **.constraintAreaMaxY 800m
param **.radioMedium.pMax 2mW

scalar org.mobileHost[0].mobility x 107.5
scalar org.mobileHost[0].mobility y 107.5
scalar org.mobileHost[0].mobility z 0
scalar org.mobileHost[1].mobility x 302.5
scalar org.mobileHost[1].mobility y 107.5
scalar org.mobileHost[1].mobility z 0
scalar org.mobileHost[2].mobility x 497.5
scalar org.mobileHost[2].mobility y 107.5
scalar org.mobileHost[2].mobility z 0
scalar org.mobileHost[3].mobility x 692.5
scalar org.mobileHost[3].mobility y 107.5
scalar org.mobileHost[3].mobility z 0
scalar org.mobileHost[4].mobility x 107.5
scalar org.mobileHost[4].mobility y 302.5
scalar org.mobileHost[4].mobility z 0
scalar org.mobileHost[5].mobility x 302.5
scalar org.mobileHost[5].mobility y 302.5
scalar org.mobileHost[5].mobility z 0
scalar org.mobileHost[6].mobility x 497.5
scalar org.mobileHost[6].mobility y 302.5
scalar org.mobileHost[6].mobility z 0
scalar org.mobileHost[7].mobility x 692.5
scalar org.mobileHost[7].mobility y 302.5
scalar org.mobileHost[7].mobility z 0
scalar org.mobileHost[8].mobility x 107.5
scalar org.mobileHost[8].mobility y 497.5
scalar org.mobileHost[8].mobility z 0
scalar org.mobileHost[9].mobility x 302.5
scalar org.mobileHost[9].mobility y 497.5
scalar org.mobileHost[9].mobility z 0
scalar org.mobileHost[10].mobility x 497.5
scalar org.mobileHost[10].mobility y 497.5
scalar org.mobileHost[10].mobility z 0
scalar org.mobileHost[11].mobility x 692.5
scalar org.mobileHost[11].mobility y 497.5
scalar org.mobileHost[11].mobility z 0
scalar org.mobileHost[12].mobility x 107.5
scalar org.mobileHost[12].mobility y 692.5
scalar org.mobileHost[12].mobility z 0
scalar org.mobileHost[13].mobility x 302.5
scalar org.mobileHost[13].mobility y 692.5
scalar org.mobileHost[13].mobility z 0
scalar org.mobileHost[14].mobility x 497.5
scalar org.mobileHost[14].mobility y 692.5
scalar org.mobileHost[14].mobility z 0
scalar org.mobileHost[15].mobility x 692.5
scalar org.mobileHost[15].mobility y 692.5
scalar org.mobileHost[15].mobility z 0

