version 2
run MultiRadio-0-20180816-18:12:00-3380
attr configname MultiRadio
attr datetime 20180816-18:12:00
attr experiment MultiRadio
attr inifile omnetpp.ini
attr iterationvars ""
attr iterationvarsf ""
attr measurement ""
attr network org
attr processid 3380
attr repetition 0
attr replication #0
attr resultdir results
attr runnumber 0
attr seedset 0
param **.numRadios 2
param **.mgmt.numChannels 3
param **.mobileHost[0].wlan[0].radio.channelNumber 0
param **.mobileHost[0].wlan[1].radio.channelNumber 1
param **.mobileHost[1].wlan[0].radio.channelNumber 0
param **.mobileHost[1].wlan[1].radio.channelNumber 1
param **.mobileHost[2].wlan[0].radio.channelNumber 0
param **.mobileHost[2].wlan[1].radio.channelNumber 2
param **.mobileHost[3].wlan[0].radio.channelNumber 1
param **.mobileHost[3].wlan[1].radio.channelNumber 2
param **.mobileHost[4].wlan[0].radio.channelNumber 0
param **.mobileHost[4].wlan[1].radio.channelNumber 1
param **.mobileHost[5].wlan[0].radio.channelNumber 1
param **.mobileHost[5].wlan[1].radio.channelNumber 2
param **.mobileHost[6].wlan[0].radio.channelNumber 1
param **.mobileHost[6].wlan[1].radio.channelNumber 2
param **.mobileHost[7].wlan[0].radio.channelNumber 0
param **.mobileHost[7].wlan[1].radio.channelNumber 2
param **.mobileHost[8].wlan[0].radio.channelNumber 0
param **.mobileHost[8].wlan[1].radio.channelNumber 1
param **.mobileHost[9].wlan[0].radio.channelNumber 0
param **.mobileHost[9].wlan[1].radio.channelNumber 2
param **.mobileHost[10].wlan[0].radio.channelNumber 0
param **.mobileHost[10].wlan[1].radio.channelNumber 1
param **.mobileHost[11].wlan[0].radio.channelNumber 0
param **.mobileHost[11].wlan[1].radio.channelNumber 1
param **.mobileHost[12].wlan[0].radio.channelNumber 1
param **.mobileHost[12].wlan[1].radio.channelNumber 2
param **.mobileHost[13].wlan[0].radio.channelNumber 0
param **.mobileHost[13].wlan[1].radio.channelNumber 2
param **.mobileHost[14].wlan[0].radio.channelNumber 1
param **.mobileHost[14].wlan[1].radio.channelNumber 2
param **.mobileHost[15].wlan[0].radio.channelNumber 0
param **.mobileHost[15].wlan[1].radio.channelNumber 2
param *.numHosts 16
param **.mobileHost[*].mobilityType "\"StaticGridMobility\""
param **.mobileHost[*].mobility.numHosts 16
param **.mobileHost[*].mobility.marginX 10m
param **.mobileHost[*].mobility.marginY 10m
param **.wlan[*].bitrate 54Mbps
param **.mac.maxQueueSize 15
param *.radiomedium.typename "\"ApskScalarRadioMedium\""
param *.radioMedium.backgroundNoise.power -90dBm
param *.radioMedium.mediumLimitCache.carrierFrequency 2GHz
param **.wlan[0].radio.typename "\"ApskScalarRadio\""
param **.wlan[0].radio.carrierFrequency 2.412GHz
param **.wlan[0].radio.bandwidth 2MHz
param **.wlan[0].radio.transmitter.power 1mW
param **.wlan[0].radio.transmitter.preambleDuration 10us
param **.wlan[0].radio.transmitter.headerLength 0b
param **.wlan[0].radio.receiver.sensitivity -85dBm
param **.wlan[0].radio.receiver.energyDetection -85dBm
param **.wlan[0].radio.receiver.snirThreshold 4dB
param **.wlan[0].radio.displayCommunicationRange true
param *.visualizer.mediumVisualizer.displaySignals true
param *.visualizer.physicalLinkVisualizer.displayLinks true
param **.mobileHost[0].numPingApps 1
param **.mobileHost[0].pingApp[0].destAddr "\"10.0.0.31\""
param **.mobileHost[0].pingApp[0].startTime 0s
param **.pingApp[*].printPing true
param **.mobileHost[*].routingProtocol "\"OLSR_ETX\""
param **.networkConfigurator.config "xml(\"<config><interface hosts='*' address='10.0.0.x' netmask='255.255.255.0'/></config>\")"
param **.constraintAreaMinX 0m
param **.constraintAreaMinY 0m
param **.constraintAreaMaxX 800m
param **.constraintAreaMaxY 800m
param **.radioMedium.pMax 2mW

scalar org.mobileHost[0].mobility x 107.5
scalar org.mobileHost[0].mobility y 107.5
scalar org.mobileHost[0].mobility z 0
scalar org.mobileHost[1].mobility x 302.5
scalar org.mobileHost[1].mobility y 107.5
scalar org.mobileHost[1].mobility z 0
scalar org.mobileHost[2].mobility x 497.5
scalar org.mobileHost[2].mobility y 107.5
scalar org.mobileHost[2].mobility z 0
scalar org.mobileHost[3].mobility x 692.5
scalar org.mobileHost[3].mobility y 107.5
scalar org.mobileHost[3].mobility z 0
scalar org.mobileHost[4].mobility x 107.5
scalar org.mobileHost[4].mobility y 302.5
scalar org.mobileHost[4].mobility z 0
scalar org.mobileHost[5].mobility x 302.5
scalar org.mobileHost[5].mobility y 302.5
scalar org.mobileHost[5].mobility z 0
scalar org.mobileHost[6].mobility x 497.5
scalar org.mobileHost[6].mobility y 302.5
scalar org.mobileHost[6].mobility z 0
scalar org.mobileHost[7].mobility x 692.5
scalar org.mobileHost[7].mobility y 302.5
scalar org.mobileHost[7].mobility z 0
scalar org.mobileHost[8].mobility x 107.5
scalar org.mobileHost[8].mobility y 497.5
scalar org.mobileHost[8].mobility z 0
scalar org.mobileHost[9].mobility x 302.5
scalar org.mobileHost[9].mobility y 497.5
scalar org.mobileHost[9].mobility z 0
scalar org.mobileHost[10].mobility x 497.5
scalar org.mobileHost[10].mobility y 497.5
scalar org.mobileHost[10].mobility z 0
scalar org.mobileHost[11].mobility x 692.5
scalar org.mobileHost[11].mobility y 497.5
scalar org.mobileHost[11].mobility z 0
scalar org.mobileHost[12].mobility x 107.5
scalar org.mobileHost[12].mobility y 692.5
scalar org.mobileHost[12].mobility z 0
scalar org.mobileHost[13].mobility x 302.5
scalar org.mobileHost[13].mobility y 692.5
scalar org.mobileHost[13].mobility z 0
scalar org.mobileHost[14].mobility x 497.5
scalar org.mobileHost[14].mobility y 692.5
scalar org.mobileHost[14].mobility z 0
scalar org.mobileHost[15].mobility x 692.5
scalar org.mobileHost[15].mobility y 692.5
scalar org.mobileHost[15].mobility z 0
scalar org.radioMedium.propagation "Arrival computation count" 0
scalar org.radioMedium "transmission count" 0
scalar org.radioMedium "radio frame send count" 0
scalar org.radioMedium "reception computation count" 0
scalar org.radioMedium "interference computation count" 32
scalar org.radioMedium "reception decision computation count" 0
scalar org.radioMedium "listening decision computation count" 32
scalar org.radioMedium "reception cache hit" nan
attr unit %
scalar org.radioMedium "interference cache hit" nan
attr unit %
scalar org.radioMedium "noise cache hit" nan
attr unit %
scalar org.radioMedium "snir cache hit" nan
attr unit %
scalar org.radioMedium "reception decision cache hit" nan
attr unit %
scalar org.radioMedium "reception result cache hit" nan
attr unit %
scalar org.mobileHost[0].networkLayer.arp sentReply:count 0
attr title "ARP replies sent, count"
scalar org.mobileHost[0].networkLayer.arp sentReq:count 0
attr title "ARP request sent, count"
scalar org.mobileHost[0].networkLayer.arp initiatedARPResolution:count 0
attr title "ARP initiated resolutions, count"
scalar org.mobileHost[0].networkLayer.arp failedARPResolution:count 0
attr title "ARP failed resolutions, count"
scalar org.mobileHost[0].networkLayer.arp completedARPResolution:count 0
attr title "ARP completed resolutions, count"
scalar org.mobileHost[0].lo0.lo droppedPkBitError:count 0
attr interpolationmode none
attr source dropPkBitError
attr title "packets dropped/bit error, count"
scalar org.mobileHost[0].lo0.lo droppedPkBitError:sum(packetBytes) 0
attr interpolationmode none
attr source dropPkBitError
attr title "packets dropped/bit error, sum(packetBytes)"
scalar org.mobileHost[0].lo0.lo rcvdPkFromHL:count 0
attr interpolationmode none
attr source packetReceivedFromUpper
attr title "packets received from higher layer, count"
scalar org.mobileHost[0].lo0.lo rcvdPkFromHL:sum(packetBytes) 0
attr interpolationmode none
attr source packetReceivedFromUpper
attr title "packets received from higher layer, sum(packetBytes)"
scalar org.mobileHost[0].lo0.lo passedUpPk:count 0
attr interpolationmode none
attr source packetSentToUpper
attr title "packets passed to higher layer, count"
scalar org.mobileHost[0].lo0.lo passedUpPk:sum(packetBytes) 0
attr interpolationmode none
attr source packetSentToUpper
attr title "packets passed to higher layer, sum(packetBytes)"
scalar org.mobileHost[0].wlan[0].mac.statistics numReceivedUnicast 0
scalar org.mobileHost[0].wlan[0].mac.statistics numReceivedBroadcast 0
scalar org.mobileHost[0].wlan[0].mac.statistics numReceivedMulticast 0
scalar org.mobileHost[0].wlan[0].mac.statistics numReceivedNotForUs 0
scalar org.mobileHost[0].wlan[0].mac.statistics numReceivedErroneous 0
scalar org.mobileHost[0].wlan[0].mac rcvdPkFromHL:count 0
attr interpolationmode none
attr source packetReceivedFromUpper
attr title "packets received from higher layer, count"
scalar org.mobileHost[0].wlan[0].mac rcvdPkFromHL:sum(packetBytes) 0
attr interpolationmode none
attr source packetReceivedFromUpper
attr title "packets received from higher layer, sum(packetBytes)"
scalar org.mobileHost[0].wlan[0].mac passedUpPk:count 0
attr interpolationmode none
attr source packetSentToUpper
attr title "packets passed to higher layer, count"
scalar org.mobileHost[0].wlan[0].mac passedUpPk:sum(packetBytes) 0
attr interpolationmode none
attr source packetSentToUpper
attr title "packets passed to higher layer, sum(packetBytes)"
scalar org.mobileHost[0].wlan[0].mac rcvdPkFromLL:count 0
attr interpolationmode none
attr source packetReceivedFromLower
attr title "packets received from lower layer, count"
scalar org.mobileHost[0].wlan[0].mac rcvdPkFromLL:sum(packetBytes) 0
attr interpolationmode none
attr source packetReceivedFromLower
attr title "packets received from lower layer, sum(packetBytes)"
scalar org.mobileHost[0].wlan[0].mac sentDownPk:count 0
attr interpolationmode none
attr source packetSentToLower
attr title "packets sent to lower layer, count"
scalar org.mobileHost[0].wlan[0].mac sentDownPk:sum(packetBytes) 0
attr interpolationmode none
attr source packetSentToLower
attr title "packets sent to lower layer, sum(packetBytes)"
statistic org.mobileHost[0].wlan[0].radio symbolErrorRate:histogram
field count 0
field mean nan
field stddev nan
field min nan
field max nan
field sum 0
field sqrsum 0
attr source symbolErrorRate
attr title "Symbol error rate, histogram"
bin	-inf	0
bin	0	0
bin	1	0
statistic org.mobileHost[0].wlan[0].radio bitErrorRate:histogram
field count 0
field mean nan
field stddev nan
field min nan
field max nan
field sum 0
field sqrsum 0
attr source bitErrorRate
attr title "Bit error rate, histogram"
bin	-inf	0
bin	0	0
bin	1	0
statistic org.mobileHost[0].wlan[0].radio packetErrorRate:histogram
field count 0
field mean nan
field stddev nan
field min nan
field max nan
field sum 0
field sqrsum 0
attr source packetErrorRate
attr title "Packet error rate, histogram"
bin	-inf	0
bin	0	0
bin	1	0
statistic org.mobileHost[0].wlan[0].radio minSNIR:histogram
field count 0
field mean nan
field stddev nan
field min nan
field max nan
field sum 0
field sqrsum 0
attr source minSNIR
attr title "Min SNIR, histogram"
bin	-inf	0
bin	0	0
bin	1	0
scalar org.mobileHost[0].wlan[0].radio transmissionState:count 0
attr interpolationmode sample-hold
attr source transmissionStateChanged
attr title "Radio transmission state, count"
scalar org.mobileHost[0].wlan[0].radio receptionState:count 1
attr interpolationmode sample-hold
attr source receptionStateChanged
attr title "Radio reception state, count"
scalar org.mobileHost[0].wlan[0].radio radioMode:count 2
attr interpolationmode sample-hold
attr source radioModeChanged
attr title "Radio mode, count"
statistic org.mobileHost[0].wlan[0].radio radioChannel:histogram
field count 1
field mean 0
field stddev nan
field min 0
field max 0
field sum 0
field sqrsum 0
attr interpolationmode sample-hold
attr source radioChannelChanged
attr title "Radio channel, histogram"
bin	-inf	0
bin	-0.5	0
bin	-0.48	0
bin	-0.46	0
bin	-0.44	0
bin	-0.42	0
bin	-0.4	0
bin	-0.38	0
bin	-0.36	0
bin	-0.34	0
bin	-0.32	0
bin	-0.3	0
bin	-0.28	0
bin	-0.26	0
bin	-0.24	0
bin	-0.22	0
bin	-0.2	0
bin	-0.18	0
bin	-0.16	0
bin	-0.14	0
bin	-0.12	0
bin	-0.1	0
bin	-0.08	0
bin	-0.06	0
bin	-0.04	0
bin	-0.02	0
bin	0	1
bin	0.02	0
bin	0.04	0
bin	0.06	0
bin	0.08	0
bin	0.1	0
bin	0.12	0
bin	0.14	0
bin	0.16	0
bin	0.18	0
bin	0.2	0
bin	0.22	0
bin	0.24	0
bin	0.26	0
bin	0.28	0
bin	0.3	0
bin	0.32	0
bin	0.34	0
bin	0.36	0
bin	0.38	0
bin	0.4	0
bin	0.42	0
bin	0.44	0
bin	0.46	0
bin	0.48	0
bin	0.5	0
scalar org.mobileHost[0].wlan[1].mac.statistics numReceivedUnicast 0
scalar org.mobileHost[0].wlan[1].mac.statistics numReceivedBroadcast 0
scalar org.mobileHost[0].wlan[1].mac.statistics numReceivedMulticast 0
scalar org.mobileHost[0].wlan[1].mac.statistics numReceivedNotForUs 0
scalar org.mobileHost[0].wlan[1].mac.statistics numReceivedErroneous 0
scalar org.mobileHost[0].wlan[1].mac rcvdPkFromHL:count 0
attr interpolationmode none
attr source packetReceivedFromUpper
attr title "packets received from higher layer, count"
scalar org.mobileHost[0].wlan[1].mac rcvdPkFromHL:sum(packetBytes) 0
attr interpolationmode none
attr source packetReceivedFromUpper
attr title "packets received from higher layer, sum(packetBytes)"
scalar org.mobileHost[0].wlan[1].mac passedUpPk:count 0
attr interpolationmode none
attr source packetSentToUpper
attr title "packets passed to higher layer, count"
scalar org.mobileHost[0].wlan[1].mac passedUpPk:sum(packetBytes) 0
attr interpolationmode none
attr source packetSentToUpper
attr title "packets passed to higher layer, sum(packetBytes)"
scalar org.mobileHost[0].wlan[1].mac rcvdPkFromLL:count 0
attr interpolationmode none
attr source packetReceivedFromLower
attr title "packets received from lower layer, count"
scalar org.mobileHost[0].wlan[1].mac rcvdPkFromLL:sum(packetBytes) 0
attr interpolationmode none
attr source packetReceivedFromLower
attr title "packets received from lower layer, sum(packetBytes)"
scalar org.mobileHost[0].wlan[1].mac sentDownPk:count 0
attr interpolationmode none
attr source packetSentToLower
attr title "packets sent to lower layer, count"
scalar org.mobileHost[0].wlan[1].mac sentDownPk:sum(packetBytes) 0
attr interpolationmode none
attr source packetSentToLower
attr title "packets sent to lower layer, sum(packetBytes)"
statistic org.mobileHost[0].wlan[1].radio symbolErrorRate:histogram
field count 0
field mean nan
field stddev nan
field min nan
field max nan
field sum 0
field sqrsum 0
attr source symbolErrorRate
attr title "Symbol error rate, histogram"
bin	-inf	0
bin	0	0
bin	1	0
statistic org.mobileHost[0].wlan[1].radio bitErrorRate:histogram
field count 0
field mean nan
field stddev nan
field min nan
field max nan
field sum 0
field sqrsum 0
attr source bitErrorRate
attr title "Bit error rate, histogram"
bin	-inf	0
bin	0	0
bin	1	0
statistic org.mobileHost[0].wlan[1].radio packetErrorRate:histogram
field count 0
field mean nan
field stddev nan
field min nan
field max nan
field sum 0
field sqrsum 0
attr source packetErrorRate
attr title "Packet error rate, histogram"
bin	-inf	0
bin	0	0
bin	1	0
statistic org.mobileHost[0].wlan[1].radio minSNIR:histogram
field count 0
field mean nan
field stddev nan
field min nan
field max nan
field sum 0
field sqrsum 0
attr source minSNIR
attr title "Min SNIR, histogram"
bin	-inf	0
bin	0	0
bin	1	0
scalar org.mobileHost[0].wlan[1].radio transmissionState:count 0
attr interpolationmode sample-hold
attr source transmissionStateChanged
attr title "Radio transmission state, count"
scalar org.mobileHost[0].wlan[1].radio receptionState:count 1
attr interpolationmode sample-hold
attr source receptionStateChanged
attr title "Radio reception state, count"
scalar org.mobileHost[0].wlan[1].radio radioMode:count 2
attr interpolationmode sample-hold
attr source radioModeChanged
attr title "Radio mode, count"
statistic org.mobileHost[0].wlan[1].radio radioChannel:histogram
field count 1
field mean 1
field stddev nan
field min 1
field max 1
field sum 1
field sqrsum 1
attr interpolationmode sample-hold
attr source radioChannelChanged
attr title "Radio channel, histogram"
bin	-inf	0
bin	0	0
bin	1	1
bin	2	0
scalar org.mobileHost[0].pingApp[0] pingRxSeq:count 0
attr interpolationmode none
attr title "ping rx seq, count"
scalar org.mobileHost[0].pingApp[0] pingTxSeq:count 0
attr interpolationmode none
attr title "ping tx seq, count"
scalar org.mobileHost[0].pingApp[0] numOutOfOrderArrivals:last nan
attr interpolationmode none
attr title "ping out-of-order arrivals, last"
scalar org.mobileHost[0].pingApp[0] numLost:last nan
attr interpolationmode none
attr title "pings lost, last"
statistic org.mobileHost[0].pingApp[0] rtt:histogram
field count 0
field mean nan
field stddev nan
field min nan
field max nan
field sum 0
field sqrsum 0
attr interpolationmode none
attr title "ping round-trip time, histogram"
attr unit s
bin	-inf	0
bin	0	0
bin	1	0
scalar org.mobileHost[1].networkLayer.arp sentReply:count 0
attr title "ARP replies sent, count"
scalar org.mobileHost[1].networkLayer.arp sentReq:count 0
attr title "ARP request sent, count"
scalar org.mobileHost[1].networkLayer.arp initiatedARPResolution:count 0
attr title "ARP initiated resolutions, count"
scalar org.mobileHost[1].networkLayer.arp failedARPResolution:count 0
attr title "ARP failed resolutions, count"
scalar org.mobileHost[1].networkLayer.arp completedARPResolution:count 0
attr title "ARP completed resolutions, count"
scalar org.mobileHost[1].lo0.lo droppedPkBitError:count 0
attr interpolationmode none
attr source dropPkBitError
attr title "packets dropped/bit error, count"
scalar org.mobileHost[1].lo0.lo droppedPkBitError:sum(packetBytes) 0
attr interpolationmode none
attr source dropPkBitError
attr title "packets dropped/bit error, sum(packetBytes)"
scalar org.mobileHost[1].lo0.lo rcvdPkFromHL:count 0
attr interpolationmode none
attr source packetReceivedFromUpper
attr title "packets received from higher layer, count"
scalar org.mobileHost[1].lo0.lo rcvdPkFromHL:sum(packetBytes) 0
attr interpolationmode none
attr source packetReceivedFromUpper
attr title "packets received from higher layer, sum(packetBytes)"
scalar org.mobileHost[1].lo0.lo passedUpPk:count 0
attr interpolationmode none
attr source packetSentToUpper
attr title "packets passed to higher layer, count"
scalar org.mobileHost[1].lo0.lo passedUpPk:sum(packetBytes) 0
attr interpolationmode none
attr source packetSentToUpper
attr title "packets passed to higher layer, sum(packetBytes)"
scalar org.mobileHost[1].wlan[0].mac.statistics numReceivedUnicast 0
scalar org.mobileHost[1].wlan[0].mac.statistics numReceivedBroadcast 0
scalar org.mobileHost[1].wlan[0].mac.statistics numReceivedMulticast 0
scalar org.mobileHost[1].wlan[0].mac.statistics numReceivedNotForUs 0
scalar org.mobileHost[1].wlan[0].mac.statistics numReceivedErroneous 0
scalar org.mobileHost[1].wlan[0].mac rcvdPkFromHL:count 0
attr interpolationmode none
attr source packetReceivedFromUpper
attr title "packets received from higher layer, count"
scalar org.mobileHost[1].wlan[0].mac rcvdPkFromHL:sum(packetBytes) 0
attr interpolationmode none
attr source packetReceivedFromUpper
attr title "packets received from higher layer, sum(packetBytes)"
scalar org.mobileHost[1].wlan[0].mac passedUpPk:count 0
attr interpolationmode none
attr source packetSentToUpper
attr title "packets passed to higher layer, count"
scalar org.mobileHost[1].wlan[0].mac passedUpPk:sum(packetBytes) 0
attr interpolationmode none
attr source packetSentToUpper
attr title "packets passed to higher layer, sum(packetBytes)"
scalar org.mobileHost[1].wlan[0].mac rcvdPkFromLL:count 0
attr interpolationmode none
attr source packetReceivedFromLower
attr title "packets received from lower layer, count"
scalar org.mobileHost[1].wlan[0].mac rcvdPkFromLL:sum(packetBytes) 0
attr interpolationmode none
attr source packetReceivedFromLower
attr title "packets received from lower layer, sum(packetBytes)"
scalar org.mobileHost[1].wlan[0].mac sentDownPk:count 0
attr interpolationmode none
attr source packetSentToLower
attr title "packets sent to lower layer, count"
scalar org.mobileHost[1].wlan[0].mac sentDownPk:sum(packetBytes) 0
attr interpolationmode none
attr source packetSentToLower
attr title "packets sent to lower layer, sum(packetBytes)"
statistic org.mobileHost[1].wlan[0].radio symbolErrorRate:histogram
field count 0
field mean nan
field stddev nan
field min nan
field max nan
field sum 0
field sqrsum 0
attr source symbolErrorRate
attr title "Symbol error rate, histogram"
bin	-inf	0
bin	0	0
bin	1	0
statistic org.mobileHost[1].wlan[0].radio bitErrorRate:histogram
field count 0
field mean nan
field stddev nan
field min nan
field max nan
field sum 0
field sqrsum 0
attr source bitErrorRate
attr title "Bit error rate, histogram"
bin	-inf	0
bin	0	0
bin	1	0
statistic org.mobileHost[1].wlan[0].radio packetErrorRate:histogram
field count 0
field mean nan
field stddev nan
field min nan
field max nan
field sum 0
field sqrsum 0
attr source packetErrorRate
attr title "Packet error rate, histogram"
bin	-inf	0
bin	0	0
bin	1	0
statistic org.mobileHost[1].wlan[0].radio minSNIR:histogram
field count 0
field mean nan
field stddev nan
field min nan
field max nan
field sum 0
field sqrsum 0
attr source minSNIR
attr title "Min SNIR, histogram"
bin	-inf	0
bin	0	0
bin	1	0
scalar org.mobileHost[1].wlan[0].radio transmissionState:count 0
attr interpolationmode sample-hold
attr source transmissionStateChanged
attr title "Radio transmission state, count"
scalar org.mobileHost[1].wlan[0].radio receptionState:count 1
attr interpolationmode sample-hold
attr source receptionStateChanged
attr title "Radio reception state, count"
scalar org.mobileHost[1].wlan[0].radio radioMode:count 2
attr interpolationmode sample-hold
attr source radioModeChanged
attr title "Radio mode, count"
statistic org.mobileHost[1].wlan[0].radio radioChannel:histogram
field count 1
field mean 0
field stddev nan
field min 0
field max 0
field sum 0
field sqrsum 0
attr interpolationmode sample-hold
attr source radioChannelChanged
attr title "Radio channel, histogram"
bin	-inf	0
bin	-0.5	0
bin	-0.48	0
bin	-0.46	0
bin	-0.44	0
bin	-0.42	0
bin	-0.4	0
bin	-0.38	0
bin	-0.36	0
bin	-0.34	0
bin	-0.32	0
bin	-0.3	0
bin	-0.28	0
bin	-0.26	0
bin	-0.24	0
bin	-0.22	0
bin	-0.2	0
bin	-0.18	0
bin	-0.16	0
bin	-0.14	0
bin	-0.12	0
bin	-0.1	0
bin	-0.08	0
bin	-0.06	0
bin	-0.04	0
bin	-0.02	0
bin	0	1
bin	0.02	0
bin	0.04	0
bin	0.06	0
bin	0.08	0
bin	0.1	0
bin	0.12	0
bin	0.14	0
bin	0.16	0
bin	0.18	0
bin	0.2	0
bin	0.22	0
bin	0.24	0
bin	0.26	0
bin	0.28	0
bin	0.3	0
bin	0.32	0
bin	0.34	0
bin	0.36	0
bin	0.38	0
bin	0.4	0
bin	0.42	0
bin	0.44	0
bin	0.46	0
bin	0.48	0
bin	0.5	0
scalar org.mobileHost[1].wlan[1].mac.statistics numReceivedUnicast 0
scalar org.mobileHost[1].wlan[1].mac.statistics numReceivedBroadcast 0
scalar org.mobileHost[1].wlan[1].mac.statistics numReceivedMulticast 0
scalar org.mobileHost[1].wlan[1].mac.statistics numReceivedNotForUs 0
scalar org.mobileHost[1].wlan[1].mac.statistics numReceivedErroneous 0
scalar org.mobileHost[1].wlan[1].mac rcvdPkFromHL:count 0
attr interpolationmode none
attr source packetReceivedFromUpper
attr title "packets received from higher layer, count"
scalar org.mobileHost[1].wlan[1].mac rcvdPkFromHL:sum(packetBytes) 0
attr interpolationmode none
attr source packetReceivedFromUpper
attr title "packets received from higher layer, sum(packetBytes)"
scalar org.mobileHost[1].wlan[1].mac passedUpPk:count 0
attr interpolationmode none
attr source packetSentToUpper
attr title "packets passed to higher layer, count"
scalar org.mobileHost[1].wlan[1].mac passedUpPk:sum(packetBytes) 0
attr interpolationmode none
attr source packetSentToUpper
attr title "packets passed to higher layer, sum(packetBytes)"
scalar org.mobileHost[1].wlan[1].mac rcvdPkFromLL:count 0
attr interpolationmode none
attr source packetReceivedFromLower
attr title "packets received from lower layer, count"
scalar org.mobileHost[1].wlan[1].mac rcvdPkFromLL:sum(packetBytes) 0
attr interpolationmode none
attr source packetReceivedFromLower
attr title "packets received from lower layer, sum(packetBytes)"
scalar org.mobileHost[1].wlan[1].mac sentDownPk:count 0
attr interpolationmode none
attr source packetSentToLower
attr title "packets sent to lower layer, count"
scalar org.mobileHost[1].wlan[1].mac sentDownPk:sum(packetBytes) 0
attr interpolationmode none
attr source packetSentToLower
attr title "packets sent to lower layer, sum(packetBytes)"
statistic org.mobileHost[1].wlan[1].radio symbolErrorRate:histogram
field count 0
field mean nan
field stddev nan
field min nan
field max nan
field sum 0
field sqrsum 0
attr source symbolErrorRate
attr title "Symbol error rate, histogram"
bin	-inf	0
bin	0	0
bin	1	0
statistic org.mobileHost[1].wlan[1].radio bitErrorRate:histogram
field count 0
field mean nan
field stddev nan
field min nan
field max nan
field sum 0
field sqrsum 0
attr source bitErrorRate
attr title "Bit error rate, histogram"
bin	-inf	0
bin	0	0
bin	1	0
statistic org.mobileHost[1].wlan[1].radio packetErrorRate:histogram
field count 0
field mean nan
field stddev nan
field min nan
field max nan
field sum 0
field sqrsum 0
attr source packetErrorRate
attr title "Packet error rate, histogram"
bin	-inf	0
bin	0	0
bin	1	0
statistic org.mobileHost[1].wlan[1].radio minSNIR:histogram
field count 0
field mean nan
field stddev nan
field min nan
field max nan
field sum 0
field sqrsum 0
attr source minSNIR
attr title "Min SNIR, histogram"
bin	-inf	0
bin	0	0
bin	1	0
scalar org.mobileHost[1].wlan[1].radio transmissionState:count 0
attr interpolationmode sample-hold
attr source transmissionStateChanged
attr title "Radio transmission state, count"
scalar org.mobileHost[1].wlan[1].radio receptionState:count 1
attr interpolationmode sample-hold
attr source receptionStateChanged
attr title "Radio reception state, count"
scalar org.mobileHost[1].wlan[1].radio radioMode:count 2
attr interpolationmode sample-hold
attr source radioModeChanged
attr title "Radio mode, count"
statistic org.mobileHost[1].wlan[1].radio radioChannel:histogram
field count 1
field mean 1
field stddev nan
field min 1
field max 1
field sum 1
field sqrsum 1
attr interpolationmode sample-hold
attr source radioChannelChanged
attr title "Radio channel, histogram"
bin	-inf	0
bin	0	0
bin	1	1
bin	2	0
scalar org.mobileHost[2].networkLayer.arp sentReply:count 0
attr title "ARP replies sent, count"
scalar org.mobileHost[2].networkLayer.arp sentReq:count 0
attr title "ARP request sent, count"
scalar org.mobileHost[2].networkLayer.arp initiatedARPResolution:count 0
attr title "ARP initiated resolutions, count"
scalar org.mobileHost[2].networkLayer.arp failedARPResolution:count 0
attr title "ARP failed resolutions, count"
scalar org.mobileHost[2].networkLayer.arp completedARPResolution:count 0
attr title "ARP completed resolutions, count"
scalar org.mobileHost[2].lo0.lo droppedPkBitError:count 0
attr interpolationmode none
attr source dropPkBitError
attr title "packets dropped/bit error, count"
scalar org.mobileHost[2].lo0.lo droppedPkBitError:sum(packetBytes) 0
attr interpolationmode none
attr source dropPkBitError
attr title "packets dropped/bit error, sum(packetBytes)"
scalar org.mobileHost[2].lo0.lo rcvdPkFromHL:count 0
attr interpolationmode none
attr source packetReceivedFromUpper
attr title "packets received from higher layer, count"
scalar org.mobileHost[2].lo0.lo rcvdPkFromHL:sum(packetBytes) 0
attr interpolationmode none
attr source packetReceivedFromUpper
attr title "packets received from higher layer, sum(packetBytes)"
scalar org.mobileHost[2].lo0.lo passedUpPk:count 0
attr interpolationmode none
attr source packetSentToUpper
attr title "packets passed to higher layer, count"
scalar org.mobileHost[2].lo0.lo passedUpPk:sum(packetBytes) 0
attr interpolationmode none
attr source packetSentToUpper
attr title "packets passed to higher layer, sum(packetBytes)"
scalar org.mobileHost[2].wlan[0].mac.statistics numReceivedUnicast 0
scalar org.mobileHost[2].wlan[0].mac.statistics numReceivedBroadcast 0
scalar org.mobileHost[2].wlan[0].mac.statistics numReceivedMulticast 0
scalar org.mobileHost[2].wlan[0].mac.statistics numReceivedNotForUs 0
scalar org.mobileHost[2].wlan[0].mac.statistics numReceivedErroneous 0
scalar org.mobileHost[2].wlan[0].mac rcvdPkFromHL:count 0
attr interpolationmode none
attr source packetReceivedFromUpper
attr title "packets received from higher layer, count"
scalar org.mobileHost[2].wlan[0].mac rcvdPkFromHL:sum(packetBytes) 0
attr interpolationmode none
attr source packetReceivedFromUpper
attr title "packets received from higher layer, sum(packetBytes)"
scalar org.mobileHost[2].wlan[0].mac passedUpPk:count 0
attr interpolationmode none
attr source packetSentToUpper
attr title "packets passed to higher layer, count"
scalar org.mobileHost[2].wlan[0].mac passedUpPk:sum(packetBytes) 0
attr interpolationmode none
attr source packetSentToUpper
attr title "packets passed to higher layer, sum(packetBytes)"
scalar org.mobileHost[2].wlan[0].mac rcvdPkFromLL:count 0
attr interpolationmode none
attr source packetReceivedFromLower
attr title "packets received from lower layer, count"
scalar org.mobileHost[2].wlan[0].mac rcvdPkFromLL:sum(packetBytes) 0
attr interpolationmode none
attr source packetReceivedFromLower
attr title "packets received from lower layer, sum(packetBytes)"
scalar org.mobileHost[2].wlan[0].mac sentDownPk:count 0
attr interpolationmode none
attr source packetSentToLower
attr title "packets sent to lower layer, count"
scalar org.mobileHost[2].wlan[0].mac sentDownPk:sum(packetBytes) 0
attr interpolationmode none
attr source packetSentToLower
attr title "packets sent to lower layer, sum(packetBytes)"
statistic org.mobileHost[2].wlan[0].radio symbolErrorRate:histogram
field count 0
field mean nan
field stddev nan
field min nan
field max nan
field sum 0
field sqrsum 0
attr source symbolErrorRate
attr title "Symbol error rate, histogram"
bin	-inf	0
bin	0	0
bin	1	0
statistic org.mobileHost[2].wlan[0].radio bitErrorRate:histogram
field count 0
field mean nan
field stddev nan
field min nan
field max nan
field sum 0
field sqrsum 0
attr source bitErrorRate
attr title "Bit error rate, histogram"
bin	-inf	0
bin	0	0
bin	1	0
statistic org.mobileHost[2].wlan[0].radio packetErrorRate:histogram
field count 0
field mean nan
field stddev nan
field min nan
field max nan
field sum 0
field sqrsum 0
attr source packetErrorRate
attr title "Packet error rate, histogram"
bin	-inf	0
bin	0	0
bin	1	0
statistic org.mobileHost[2].wlan[0].radio minSNIR:histogram
field count 0
field mean nan
field stddev nan
field min nan
field max nan
field sum 0
field sqrsum 0
attr source minSNIR
attr title "Min SNIR, histogram"
bin	-inf	0
bin	0	0
bin	1	0
scalar org.mobileHost[2].wlan[0].radio transmissionState:count 0
attr interpolationmode sample-hold
attr source transmissionStateChanged
attr title "Radio transmission state, count"
scalar org.mobileHost[2].wlan[0].radio receptionState:count 1
attr interpolationmode sample-hold
attr source receptionStateChanged
attr title "Radio reception state, count"
scalar org.mobileHost[2].wlan[0].radio radioMode:count 2
attr interpolationmode sample-hold
attr source radioModeChanged
attr title "Radio mode, count"
statistic org.mobileHost[2].wlan[0].radio radioChannel:histogram
field count 1
field mean 0
field stddev nan
field min 0
field max 0
field sum 0
field sqrsum 0
attr interpolationmode sample-hold
attr source radioChannelChanged
attr title "Radio channel, histogram"
bin	-inf	0
bin	-0.5	0
bin	-0.48	0
bin	-0.46	0
bin	-0.44	0
bin	-0.42	0
bin	-0.4	0
bin	-0.38	0
bin	-0.36	0
bin	-0.34	0
bin	-0.32	0
bin	-0.3	0
bin	-0.28	0
bin	-0.26	0
bin	-0.24	0
bin	-0.22	0
bin	-0.2	0
bin	-0.18	0
bin	-0.16	0
bin	-0.14	0
bin	-0.12	0
bin	-0.1	0
bin	-0.08	0
bin	-0.06	0
bin	-0.04	0
bin	-0.02	0
bin	0	1
bin	0.02	0
bin	0.04	0
bin	0.06	0
bin	0.08	0
bin	0.1	0
bin	0.12	0
bin	0.14	0
bin	0.16	0
bin	0.18	0
bin	0.2	0
bin	0.22	0
bin	0.24	0
bin	0.26	0
bin	0.28	0
bin	0.3	0
bin	0.32	0
bin	0.34	0
bin	0.36	0
bin	0.38	0
bin	0.4	0
bin	0.42	0
bin	0.44	0
bin	0.46	0
bin	0.48	0
bin	0.5	0
scalar org.mobileHost[2].wlan[1].mac.statistics numReceivedUnicast 0
scalar org.mobileHost[2].wlan[1].mac.statistics numReceivedBroadcast 0
scalar org.mobileHost[2].wlan[1].mac.statistics numReceivedMulticast 0
scalar org.mobileHost[2].wlan[1].mac.statistics numReceivedNotForUs 0
scalar org.mobileHost[2].wlan[1].mac.statistics numReceivedErroneous 0
scalar org.mobileHost[2].wlan[1].mac rcvdPkFromHL:count 0
attr interpolationmode none
attr source packetReceivedFromUpper
attr title "packets received from higher layer, count"
scalar org.mobileHost[2].wlan[1].mac rcvdPkFromHL:sum(packetBytes) 0
attr interpolationmode none
attr source packetReceivedFromUpper
attr title "packets received from higher layer, sum(packetBytes)"
scalar org.mobileHost[2].wlan[1].mac passedUpPk:count 0
attr interpolationmode none
attr source packetSentToUpper
attr title "packets passed to higher layer, count"
scalar org.mobileHost[2].wlan[1].mac passedUpPk:sum(packetBytes) 0
attr interpolationmode none
attr source packetSentToUpper
attr title "packets passed to higher layer, sum(packetBytes)"
scalar org.mobileHost[2].wlan[1].mac rcvdPkFromLL:count 0
attr interpolationmode none
attr source packetReceivedFromLower
attr title "packets received from lower layer, count"
scalar org.mobileHost[2].wlan[1].mac rcvdPkFromLL:sum(packetBytes) 0
attr interpolationmode none
attr source packetReceivedFromLower
attr title "packets received from lower layer, sum(packetBytes)"
scalar org.mobileHost[2].wlan[1].mac sentDownPk:count 0
attr interpolationmode none
attr source packetSentToLower
attr title "packets sent to lower layer, count"
scalar org.mobileHost[2].wlan[1].mac sentDownPk:sum(packetBytes) 0
attr interpolationmode none
attr source packetSentToLower
attr title "packets sent to lower layer, sum(packetBytes)"
statistic org.mobileHost[2].wlan[1].radio symbolErrorRate:histogram
field count 0
field mean nan
field stddev nan
field min nan
field max nan
field sum 0
field sqrsum 0
attr source symbolErrorRate
attr title "Symbol error rate, histogram"
bin	-inf	0
bin	0	0
bin	1	0
statistic org.mobileHost[2].wlan[1].radio bitErrorRate:histogram
field count 0
field mean nan
field stddev nan
field min nan
field max nan
field sum 0
field sqrsum 0
attr source bitErrorRate
attr title "Bit error rate, histogram"
bin	-inf	0
bin	0	0
bin	1	0
statistic org.mobileHost[2].wlan[1].radio packetErrorRate:histogram
field count 0
field mean nan
field stddev nan
field min nan
field max nan
field sum 0
field sqrsum 0
attr source packetErrorRate
attr title "Packet error rate, histogram"
bin	-inf	0
bin	0	0
bin	1	0
statistic org.mobileHost[2].wlan[1].radio minSNIR:histogram
field count 0
field mean nan
field stddev nan
field min nan
field max nan
field sum 0
field sqrsum 0
attr source minSNIR
attr title "Min SNIR, histogram"
bin	-inf	0
bin	0	0
bin	1	0
scalar org.mobileHost[2].wlan[1].radio transmissionState:count 0
attr interpolationmode sample-hold
attr source transmissionStateChanged
attr title "Radio transmission state, count"
scalar org.mobileHost[2].wlan[1].radio receptionState:count 1
attr interpolationmode sample-hold
attr source receptionStateChanged
attr title "Radio reception state, count"
scalar org.mobileHost[2].wlan[1].radio radioMode:count 2
attr interpolationmode sample-hold
attr source radioModeChanged
attr title "Radio mode, count"
statistic org.mobileHost[2].wlan[1].radio radioChannel:histogram
field count 1
field mean 2
field stddev nan
field min 2
field max 2
field sum 2
field sqrsum 4
attr interpolationmode sample-hold
attr source radioChannelChanged
attr title "Radio channel, histogram"
bin	-inf	0
bin	1	0
bin	2	1
bin	3	0
scalar org.mobileHost[3].networkLayer.arp sentReply:count 0
attr title "ARP replies sent, count"
scalar org.mobileHost[3].networkLayer.arp sentReq:count 0
attr title "ARP request sent, count"
scalar org.mobileHost[3].networkLayer.arp initiatedARPResolution:count 0
attr title "ARP initiated resolutions, count"
scalar org.mobileHost[3].networkLayer.arp failedARPResolution:count 0
attr title "ARP failed resolutions, count"
scalar org.mobileHost[3].networkLayer.arp completedARPResolution:count 0
attr title "ARP completed resolutions, count"
scalar org.mobileHost[3].lo0.lo droppedPkBitError:count 0
attr interpolationmode none
attr source dropPkBitError
attr title "packets dropped/bit error, count"
scalar org.mobileHost[3].lo0.lo droppedPkBitError:sum(packetBytes) 0
attr interpolationmode none
attr source dropPkBitError
attr title "packets dropped/bit error, sum(packetBytes)"
scalar org.mobileHost[3].lo0.lo rcvdPkFromHL:count 0
attr interpolationmode none
attr source packetReceivedFromUpper
attr title "packets received from higher layer, count"
scalar org.mobileHost[3].lo0.lo rcvdPkFromHL:sum(packetBytes) 0
attr interpolationmode none
attr source packetReceivedFromUpper
attr title "packets received from higher layer, sum(packetBytes)"
scalar org.mobileHost[3].lo0.lo passedUpPk:count 0
attr interpolationmode none
attr source packetSentToUpper
attr title "packets passed to higher layer, count"
scalar org.mobileHost[3].lo0.lo passedUpPk:sum(packetBytes) 0
attr interpolationmode none
attr source packetSentToUpper
attr title "packets passed to higher layer, sum(packetBytes)"
scalar org.mobileHost[3].wlan[0].mac.statistics numReceivedUnicast 0
scalar org.mobileHost[3].wlan[0].mac.statistics numReceivedBroadcast 0
scalar org.mobileHost[3].wlan[0].mac.statistics numReceivedMulticast 0
scalar org.mobileHost[3].wlan[0].mac.statistics numReceivedNotForUs 0
scalar org.mobileHost[3].wlan[0].mac.statistics numReceivedErroneous 0
scalar org.mobileHost[3].wlan[0].mac rcvdPkFromHL:count 0
attr interpolationmode none
attr source packetReceivedFromUpper
attr title "packets received from higher layer, count"
scalar org.mobileHost[3].wlan[0].mac rcvdPkFromHL:sum(packetBytes) 0
attr interpolationmode none
attr source packetReceivedFromUpper
attr title "packets received from higher layer, sum(packetBytes)"
scalar org.mobileHost[3].wlan[0].mac passedUpPk:count 0
attr interpolationmode none
attr source packetSentToUpper
attr title "packets passed to higher layer, count"
scalar org.mobileHost[3].wlan[0].mac passedUpPk:sum(packetBytes) 0
attr interpolationmode none
attr source packetSentToUpper
attr title "packets passed to higher layer, sum(packetBytes)"
scalar org.mobileHost[3].wlan[0].mac rcvdPkFromLL:count 0
attr interpolationmode none
attr source packetReceivedFromLower
attr title "packets received from lower layer, count"
scalar org.mobileHost[3].wlan[0].mac rcvdPkFromLL:sum(packetBytes) 0
attr interpolationmode none
attr source packetReceivedFromLower
attr title "packets received from lower layer, sum(packetBytes)"
scalar org.mobileHost[3].wlan[0].mac sentDownPk:count 0
attr interpolationmode none
attr source packetSentToLower
attr title "packets sent to lower layer, count"
scalar org.mobileHost[3].wlan[0].mac sentDownPk:sum(packetBytes) 0
attr interpolationmode none
attr source packetSentToLower
attr title "packets sent to lower layer, sum(packetBytes)"
statistic org.mobileHost[3].wlan[0].radio symbolErrorRate:histogram
field count 0
field mean nan
field stddev nan
field min nan
field max nan
field sum 0
field sqrsum 0
attr source symbolErrorRate
attr title "Symbol error rate, histogram"
bin	-inf	0
bin	0	0
bin	1	0
statistic org.mobileHost[3].wlan[0].radio bitErrorRate:histogram
field count 0
field mean nan
field stddev nan
field min nan
field max nan
field sum 0
field sqrsum 0
attr source bitErrorRate
attr title "Bit error rate, histogram"
bin	-inf	0
bin	0	0
bin	1	0
statistic org.mobileHost[3].wlan[0].radio packetErrorRate:histogram
field count 0
field mean nan
field stddev nan
field min nan
field max nan
field sum 0
field sqrsum 0
attr source packetErrorRate
attr title "Packet error rate, histogram"
bin	-inf	0
bin	0	0
bin	1	0
statistic org.mobileHost[3].wlan[0].radio minSNIR:histogram
field count 0
field mean nan
field stddev nan
field min nan
field max nan
field sum 0
field sqrsum 0
attr source minSNIR
attr title "Min SNIR, histogram"
bin	-inf	0
bin	0	0
bin	1	0
scalar org.mobileHost[3].wlan[0].radio transmissionState:count 0
attr interpolationmode sample-hold
attr source transmissionStateChanged
attr title "Radio transmission state, count"
scalar org.mobileHost[3].wlan[0].radio receptionState:count 1
attr interpolationmode sample-hold
attr source receptionStateChanged
attr title "Radio reception state, count"
scalar org.mobileHost[3].wlan[0].radio radioMode:count 2
attr interpolationmode sample-hold
attr source radioModeChanged
attr title "Radio mode, count"
statistic org.mobileHost[3].wlan[0].radio radioChannel:histogram
field count 1
field mean 1
field stddev nan
field min 1
field max 1
field sum 1
field sqrsum 1
attr interpolationmode sample-hold
attr source radioChannelChanged
attr title "Radio channel, histogram"
bin	-inf	0
bin	0	0
bin	1	1
bin	2	0
scalar org.mobileHost[3].wlan[1].mac.statistics numReceivedUnicast 0
scalar org.mobileHost[3].wlan[1].mac.statistics numReceivedBroadcast 0
scalar org.mobileHost[3].wlan[1].mac.statistics numReceivedMulticast 0
scalar org.mobileHost[3].wlan[1].mac.statistics numReceivedNotForUs 0
scalar org.mobileHost[3].wlan[1].mac.statistics numReceivedErroneous 0
scalar org.mobileHost[3].wlan[1].mac rcvdPkFromHL:count 0
attr interpolationmode none
attr source packetReceivedFromUpper
attr title "packets received from higher layer, count"
scalar org.mobileHost[3].wlan[1].mac rcvdPkFromHL:sum(packetBytes) 0
attr interpolationmode none
attr source packetReceivedFromUpper
attr title "packets received from higher layer, sum(packetBytes)"
scalar org.mobileHost[3].wlan[1].mac passedUpPk:count 0
attr interpolationmode none
attr source packetSentToUpper
attr title "packets passed to higher layer, count"
scalar org.mobileHost[3].wlan[1].mac passedUpPk:sum(packetBytes) 0
attr interpolationmode none
attr source packetSentToUpper
attr title "packets passed to higher layer, sum(packetBytes)"
scalar org.mobileHost[3].wlan[1].mac rcvdPkFromLL:count 0
attr interpolationmode none
attr source packetReceivedFromLower
attr title "packets received from lower layer, count"
scalar org.mobileHost[3].wlan[1].mac rcvdPkFromLL:sum(packetBytes) 0
attr interpolationmode none
attr source packetReceivedFromLower
attr title "packets received from lower layer, sum(packetBytes)"
scalar org.mobileHost[3].wlan[1].mac sentDownPk:count 0
attr interpolationmode none
attr source packetSentToLower
attr title "packets sent to lower layer, count"
scalar org.mobileHost[3].wlan[1].mac sentDownPk:sum(packetBytes) 0
attr interpolationmode none
attr source packetSentToLower
attr title "packets sent to lower layer, sum(packetBytes)"
statistic org.mobileHost[3].wlan[1].radio symbolErrorRate:histogram
field count 0
field mean nan
field stddev nan
field min nan
field max nan
field sum 0
field sqrsum 0
attr source symbolErrorRate
attr title "Symbol error rate, histogram"
bin	-inf	0
bin	0	0
bin	1	0
statistic org.mobileHost[3].wlan[1].radio bitErrorRate:histogram
field count 0
field mean nan
field stddev nan
field min nan
field max nan
field sum 0
field sqrsum 0
attr source bitErrorRate
attr title "Bit error rate, histogram"
bin	-inf	0
bin	0	0
bin	1	0
statistic org.mobileHost[3].wlan[1].radio packetErrorRate:histogram
field count 0
field mean nan
field stddev nan
field min nan
field max nan
field sum 0
field sqrsum 0
attr source packetErrorRate
attr title "Packet error rate, histogram"
bin	-inf	0
bin	0	0
bin	1	0
statistic org.mobileHost[3].wlan[1].radio minSNIR:histogram
field count 0
field mean nan
field stddev nan
field min nan
field max nan
field sum 0
field sqrsum 0
attr source minSNIR
attr title "Min SNIR, histogram"
bin	-inf	0
bin	0	0
bin	1	0
scalar org.mobileHost[3].wlan[1].radio transmissionState:count 0
attr interpolationmode sample-hold
attr source transmissionStateChanged
attr title "Radio transmission state, count"
scalar org.mobileHost[3].wlan[1].radio receptionState:count 1
attr interpolationmode sample-hold
attr source receptionStateChanged
attr title "Radio reception state, count"
scalar org.mobileHost[3].wlan[1].radio radioMode:count 2
attr interpolationmode sample-hold
attr source radioModeChanged
attr title "Radio mode, count"
statistic org.mobileHost[3].wlan[1].radio radioChannel:histogram
field count 1
field mean 2
field stddev nan
field min 2
field max 2
field sum 2
field sqrsum 4
attr interpolationmode sample-hold
attr source radioChannelChanged
attr title "Radio channel, histogram"
bin	-inf	0
bin	1	0
bin	2	1
bin	3	0
scalar org.mobileHost[4].networkLayer.arp sentReply:count 0
attr title "ARP replies sent, count"
scalar org.mobileHost[4].networkLayer.arp sentReq:count 0
attr title "ARP request sent, count"
scalar org.mobileHost[4].networkLayer.arp initiatedARPResolution:count 0
attr title "ARP initiated resolutions, count"
scalar org.mobileHost[4].networkLayer.arp failedARPResolution:count 0
attr title "ARP failed resolutions, count"
scalar org.mobileHost[4].networkLayer.arp completedARPResolution:count 0
attr title "ARP completed resolutions, count"
scalar org.mobileHost[4].lo0.lo droppedPkBitError:count 0
attr interpolationmode none
attr source dropPkBitError
attr title "packets dropped/bit error, count"
scalar org.mobileHost[4].lo0.lo droppedPkBitError:sum(packetBytes) 0
attr interpolationmode none
attr source dropPkBitError
attr title "packets dropped/bit error, sum(packetBytes)"
scalar org.mobileHost[4].lo0.lo rcvdPkFromHL:count 0
attr interpolationmode none
attr source packetReceivedFromUpper
attr title "packets received from higher layer, count"
scalar org.mobileHost[4].lo0.lo rcvdPkFromHL:sum(packetBytes) 0
attr interpolationmode none
attr source packetReceivedFromUpper
attr title "packets received from higher layer, sum(packetBytes)"
scalar org.mobileHost[4].lo0.lo passedUpPk:count 0
attr interpolationmode none
attr source packetSentToUpper
attr title "packets passed to higher layer, count"
scalar org.mobileHost[4].lo0.lo passedUpPk:sum(packetBytes) 0
attr interpolationmode none
attr source packetSentToUpper
attr title "packets passed to higher layer, sum(packetBytes)"
scalar org.mobileHost[4].wlan[0].mac.statistics numReceivedUnicast 0
scalar org.mobileHost[4].wlan[0].mac.statistics numReceivedBroadcast 0
scalar org.mobileHost[4].wlan[0].mac.statistics numReceivedMulticast 0
scalar org.mobileHost[4].wlan[0].mac.statistics numReceivedNotForUs 0
scalar org.mobileHost[4].wlan[0].mac.statistics numReceivedErroneous 0
scalar org.mobileHost[4].wlan[0].mac rcvdPkFromHL:count 0
attr interpolationmode none
attr source packetReceivedFromUpper
attr title "packets received from higher layer, count"
scalar org.mobileHost[4].wlan[0].mac rcvdPkFromHL:sum(packetBytes) 0
attr interpolationmode none
attr source packetReceivedFromUpper
attr title "packets received from higher layer, sum(packetBytes)"
scalar org.mobileHost[4].wlan[0].mac passedUpPk:count 0
attr interpolationmode none
attr source packetSentToUpper
attr title "packets passed to higher layer, count"
scalar org.mobileHost[4].wlan[0].mac passedUpPk:sum(packetBytes) 0
attr interpolationmode none
attr source packetSentToUpper
attr title "packets passed to higher layer, sum(packetBytes)"
scalar org.mobileHost[4].wlan[0].mac rcvdPkFromLL:count 0
attr interpolationmode none
attr source packetReceivedFromLower
attr title "packets received from lower layer, count"
scalar org.mobileHost[4].wlan[0].mac rcvdPkFromLL:sum(packetBytes) 0
attr interpolationmode none
attr source packetReceivedFromLower
attr title "packets received from lower layer, sum(packetBytes)"
scalar org.mobileHost[4].wlan[0].mac sentDownPk:count 0
attr interpolationmode none
attr source packetSentToLower
attr title "packets sent to lower layer, count"
scalar org.mobileHost[4].wlan[0].mac sentDownPk:sum(packetBytes) 0
attr interpolationmode none
attr source packetSentToLower
attr title "packets sent to lower layer, sum(packetBytes)"
statistic org.mobileHost[4].wlan[0].radio symbolErrorRate:histogram
field count 0
field mean nan
field stddev nan
field min nan
field max nan
field sum 0
field sqrsum 0
attr source symbolErrorRate
attr title "Symbol error rate, histogram"
bin	-inf	0
bin	0	0
bin	1	0
statistic org.mobileHost[4].wlan[0].radio bitErrorRate:histogram
field count 0
field mean nan
field stddev nan
field min nan
field max nan
field sum 0
field sqrsum 0
attr source bitErrorRate
attr title "Bit error rate, histogram"
bin	-inf	0
bin	0	0
bin	1	0
statistic org.mobileHost[4].wlan[0].radio packetErrorRate:histogram
field count 0
field mean nan
field stddev nan
field min nan
field max nan
field sum 0
field sqrsum 0
attr source packetErrorRate
attr title "Packet error rate, histogram"
bin	-inf	0
bin	0	0
bin	1	0
statistic org.mobileHost[4].wlan[0].radio minSNIR:histogram
field count 0
field mean nan
field stddev nan
field min nan
field max nan
field sum 0
field sqrsum 0
attr source minSNIR
attr title "Min SNIR, histogram"
bin	-inf	0
bin	0	0
bin	1	0
scalar org.mobileHost[4].wlan[0].radio transmissionState:count 0
attr interpolationmode sample-hold
attr source transmissionStateChanged
attr title "Radio transmission state, count"
scalar org.mobileHost[4].wlan[0].radio receptionState:count 1
attr interpolationmode sample-hold
attr source receptionStateChanged
attr title "Radio reception state, count"
scalar org.mobileHost[4].wlan[0].radio radioMode:count 2
attr interpolationmode sample-hold
attr source radioModeChanged
attr title "Radio mode, count"
statistic org.mobileHost[4].wlan[0].radio radioChannel:histogram
field count 1
field mean 0
field stddev nan
field min 0
field max 0
field sum 0
field sqrsum 0
attr interpolationmode sample-hold
attr source radioChannelChanged
attr title "Radio channel, histogram"
bin	-inf	0
bin	-0.5	0
bin	-0.48	0
bin	-0.46	0
bin	-0.44	0
bin	-0.42	0
bin	-0.4	0
bin	-0.38	0
bin	-0.36	0
bin	-0.34	0
bin	-0.32	0
bin	-0.3	0
bin	-0.28	0
bin	-0.26	0
bin	-0.24	0
bin	-0.22	0
bin	-0.2	0
bin	-0.18	0
bin	-0.16	0
bin	-0.14	0
bin	-0.12	0
bin	-0.1	0
bin	-0.08	0
bin	-0.06	0
bin	-0.04	0
bin	-0.02	0
bin	0	1
bin	0.02	0
bin	0.04	0
bin	0.06	0
bin	0.08	0
bin	0.1	0
bin	0.12	0
bin	0.14	0
bin	0.16	0
bin	0.18	0
bin	0.2	0
bin	0.22	0
bin	0.24	0
bin	0.26	0
bin	0.28	0
bin	0.3	0
bin	0.32	0
bin	0.34	0
bin	0.36	0
bin	0.38	0
bin	0.4	0
bin	0.42	0
bin	0.44	0
bin	0.46	0
bin	0.48	0
bin	0.5	0
scalar org.mobileHost[4].wlan[1].mac.statistics numReceivedUnicast 0
scalar org.mobileHost[4].wlan[1].mac.statistics numReceivedBroadcast 0
scalar org.mobileHost[4].wlan[1].mac.statistics numReceivedMulticast 0
scalar org.mobileHost[4].wlan[1].mac.statistics numReceivedNotForUs 0
scalar org.mobileHost[4].wlan[1].mac.statistics numReceivedErroneous 0
scalar org.mobileHost[4].wlan[1].mac rcvdPkFromHL:count 0
attr interpolationmode none
attr source packetReceivedFromUpper
attr title "packets received from higher layer, count"
scalar org.mobileHost[4].wlan[1].mac rcvdPkFromHL:sum(packetBytes) 0
attr interpolationmode none
attr source packetReceivedFromUpper
attr title "packets received from higher layer, sum(packetBytes)"
scalar org.mobileHost[4].wlan[1].mac passedUpPk:count 0
attr interpolationmode none
attr source packetSentToUpper
attr title "packets passed to higher layer, count"
scalar org.mobileHost[4].wlan[1].mac passedUpPk:sum(packetBytes) 0
attr interpolationmode none
attr source packetSentToUpper
attr title "packets passed to higher layer, sum(packetBytes)"
scalar org.mobileHost[4].wlan[1].mac rcvdPkFromLL:count 0
attr interpolationmode none
attr source packetReceivedFromLower
attr title "packets received from lower layer, count"
scalar org.mobileHost[4].wlan[1].mac rcvdPkFromLL:sum(packetBytes) 0
attr interpolationmode none
attr source packetReceivedFromLower
attr title "packets received from lower layer, sum(packetBytes)"
scalar org.mobileHost[4].wlan[1].mac sentDownPk:count 0
attr interpolationmode none
attr source packetSentToLower
attr title "packets sent to lower layer, count"
scalar org.mobileHost[4].wlan[1].mac sentDownPk:sum(packetBytes) 0
attr interpolationmode none
attr source packetSentToLower
attr title "packets sent to lower layer, sum(packetBytes)"
statistic org.mobileHost[4].wlan[1].radio symbolErrorRate:histogram
field count 0
field mean nan
field stddev nan
field min nan
field max nan
field sum 0
field sqrsum 0
attr source symbolErrorRate
attr title "Symbol error rate, histogram"
bin	-inf	0
bin	0	0
bin	1	0
statistic org.mobileHost[4].wlan[1].radio bitErrorRate:histogram
field count 0
field mean nan
field stddev nan
field min nan
field max nan
field sum 0
field sqrsum 0
attr source bitErrorRate
attr title "Bit error rate, histogram"
bin	-inf	0
bin	0	0
bin	1	0
statistic org.mobileHost[4].wlan[1].radio packetErrorRate:histogram
field count 0
field mean nan
field stddev nan
field min nan
field max nan
field sum 0
field sqrsum 0
attr source packetErrorRate
attr title "Packet error rate, histogram"
bin	-inf	0
bin	0	0
bin	1	0
statistic org.mobileHost[4].wlan[1].radio minSNIR:histogram
field count 0
field mean nan
field stddev nan
field min nan
field max nan
field sum 0
field sqrsum 0
attr source minSNIR
attr title "Min SNIR, histogram"
bin	-inf	0
bin	0	0
bin	1	0
scalar org.mobileHost[4].wlan[1].radio transmissionState:count 0
attr interpolationmode sample-hold
attr source transmissionStateChanged
attr title "Radio transmission state, count"
scalar org.mobileHost[4].wlan[1].radio receptionState:count 1
attr interpolationmode sample-hold
attr source receptionStateChanged
attr title "Radio reception state, count"
scalar org.mobileHost[4].wlan[1].radio radioMode:count 2
attr interpolationmode sample-hold
attr source radioModeChanged
attr title "Radio mode, count"
statistic org.mobileHost[4].wlan[1].radio radioChannel:histogram
field count 1
field mean 1
field stddev nan
field min 1
field max 1
field sum 1
field sqrsum 1
attr interpolationmode sample-hold
attr source radioChannelChanged
attr title "Radio channel, histogram"
bin	-inf	0
bin	0	0
bin	1	1
bin	2	0
scalar org.mobileHost[5].networkLayer.arp sentReply:count 0
attr title "ARP replies sent, count"
scalar org.mobileHost[5].networkLayer.arp sentReq:count 0
attr title "ARP request sent, count"
scalar org.mobileHost[5].networkLayer.arp initiatedARPResolution:count 0
attr title "ARP initiated resolutions, count"
scalar org.mobileHost[5].networkLayer.arp failedARPResolution:count 0
attr title "ARP failed resolutions, count"
scalar org.mobileHost[5].networkLayer.arp completedARPResolution:count 0
attr title "ARP completed resolutions, count"
scalar org.mobileHost[5].lo0.lo droppedPkBitError:count 0
attr interpolationmode none
attr source dropPkBitError
attr title "packets dropped/bit error, count"
scalar org.mobileHost[5].lo0.lo droppedPkBitError:sum(packetBytes) 0
attr interpolationmode none
attr source dropPkBitError
attr title "packets dropped/bit error, sum(packetBytes)"
scalar org.mobileHost[5].lo0.lo rcvdPkFromHL:count 0
attr interpolationmode none
attr source packetReceivedFromUpper
attr title "packets received from higher layer, count"
scalar org.mobileHost[5].lo0.lo rcvdPkFromHL:sum(packetBytes) 0
attr interpolationmode none
attr source packetReceivedFromUpper
attr title "packets received from higher layer, sum(packetBytes)"
scalar org.mobileHost[5].lo0.lo passedUpPk:count 0
attr interpolationmode none
attr source packetSentToUpper
attr title "packets passed to higher layer, count"
scalar org.mobileHost[5].lo0.lo passedUpPk:sum(packetBytes) 0
attr interpolationmode none
attr source packetSentToUpper
attr title "packets passed to higher layer, sum(packetBytes)"
scalar org.mobileHost[5].wlan[0].mac.statistics numReceivedUnicast 0
scalar org.mobileHost[5].wlan[0].mac.statistics numReceivedBroadcast 0
scalar org.mobileHost[5].wlan[0].mac.statistics numReceivedMulticast 0
scalar org.mobileHost[5].wlan[0].mac.statistics numReceivedNotForUs 0
scalar org.mobileHost[5].wlan[0].mac.statistics numReceivedErroneous 0
scalar org.mobileHost[5].wlan[0].mac rcvdPkFromHL:count 0
attr interpolationmode none
attr source packetReceivedFromUpper
attr title "packets received from higher layer, count"
scalar org.mobileHost[5].wlan[0].mac rcvdPkFromHL:sum(packetBytes) 0
attr interpolationmode none
attr source packetReceivedFromUpper
attr title "packets received from higher layer, sum(packetBytes)"
scalar org.mobileHost[5].wlan[0].mac passedUpPk:count 0
attr interpolationmode none
attr source packetSentToUpper
attr title "packets passed to higher layer, count"
scalar org.mobileHost[5].wlan[0].mac passedUpPk:sum(packetBytes) 0
attr interpolationmode none
attr source packetSentToUpper
attr title "packets passed to higher layer, sum(packetBytes)"
scalar org.mobileHost[5].wlan[0].mac rcvdPkFromLL:count 0
attr interpolationmode none
attr source packetReceivedFromLower
attr title "packets received from lower layer, count"
scalar org.mobileHost[5].wlan[0].mac rcvdPkFromLL:sum(packetBytes) 0
attr interpolationmode none
attr source packetReceivedFromLower
attr title "packets received from lower layer, sum(packetBytes)"
scalar org.mobileHost[5].wlan[0].mac sentDownPk:count 0
attr interpolationmode none
attr source packetSentToLower
attr title "packets sent to lower layer, count"
scalar org.mobileHost[5].wlan[0].mac sentDownPk:sum(packetBytes) 0
attr interpolationmode none
attr source packetSentToLower
attr title "packets sent to lower layer, sum(packetBytes)"
statistic org.mobileHost[5].wlan[0].radio symbolErrorRate:histogram
field count 0
field mean nan
field stddev nan
field min nan
field max nan
field sum 0
field sqrsum 0
attr source symbolErrorRate
attr title "Symbol error rate, histogram"
bin	-inf	0
bin	0	0
bin	1	0
statistic org.mobileHost[5].wlan[0].radio bitErrorRate:histogram
field count 0
field mean nan
field stddev nan
field min nan
field max nan
field sum 0
field sqrsum 0
attr source bitErrorRate
attr title "Bit error rate, histogram"
bin	-inf	0
bin	0	0
bin	1	0
statistic org.mobileHost[5].wlan[0].radio packetErrorRate:histogram
field count 0
field mean nan
field stddev nan
field min nan
field max nan
field sum 0
field sqrsum 0
attr source packetErrorRate
attr title "Packet error rate, histogram"
bin	-inf	0
bin	0	0
bin	1	0
statistic org.mobileHost[5].wlan[0].radio minSNIR:histogram
field count 0
field mean nan
field stddev nan
field min nan
field max nan
field sum 0
field sqrsum 0
attr source minSNIR
attr title "Min SNIR, histogram"
bin	-inf	0
bin	0	0
bin	1	0
scalar org.mobileHost[5].wlan[0].radio transmissionState:count 0
attr interpolationmode sample-hold
attr source transmissionStateChanged
attr title "Radio transmission state, count"
scalar org.mobileHost[5].wlan[0].radio receptionState:count 1
attr interpolationmode sample-hold
attr source receptionStateChanged
attr title "Radio reception state, count"
scalar org.mobileHost[5].wlan[0].radio radioMode:count 2
attr interpolationmode sample-hold
attr source radioModeChanged
attr title "Radio mode, count"
statistic org.mobileHost[5].wlan[0].radio radioChannel:histogram
field count 1
field mean 1
field stddev nan
field min 1
field max 1
field sum 1
field sqrsum 1
attr interpolationmode sample-hold
attr source radioChannelChanged
attr title "Radio channel, histogram"
bin	-inf	0
bin	0	0
bin	1	1
bin	2	0
scalar org.mobileHost[5].wlan[1].mac.statistics numReceivedUnicast 0
scalar org.mobileHost[5].wlan[1].mac.statistics numReceivedBroadcast 0
scalar org.mobileHost[5].wlan[1].mac.statistics numReceivedMulticast 0
scalar org.mobileHost[5].wlan[1].mac.statistics numReceivedNotForUs 0
scalar org.mobileHost[5].wlan[1].mac.statistics numReceivedErroneous 0
scalar org.mobileHost[5].wlan[1].mac rcvdPkFromHL:count 0
attr interpolationmode none
attr source packetReceivedFromUpper
attr title "packets received from higher layer, count"
scalar org.mobileHost[5].wlan[1].mac rcvdPkFromHL:sum(packetBytes) 0
attr interpolationmode none
attr source packetReceivedFromUpper
attr title "packets received from higher layer, sum(packetBytes)"
scalar org.mobileHost[5].wlan[1].mac passedUpPk:count 0
attr interpolationmode none
attr source packetSentToUpper
attr title "packets passed to higher layer, count"
scalar org.mobileHost[5].wlan[1].mac passedUpPk:sum(packetBytes) 0
attr interpolationmode none
attr source packetSentToUpper
attr title "packets passed to higher layer, sum(packetBytes)"
scalar org.mobileHost[5].wlan[1].mac rcvdPkFromLL:count 0
attr interpolationmode none
attr source packetReceivedFromLower
attr title "packets received from lower layer, count"
scalar org.mobileHost[5].wlan[1].mac rcvdPkFromLL:sum(packetBytes) 0
attr interpolationmode none
attr source packetReceivedFromLower
attr title "packets received from lower layer, sum(packetBytes)"
scalar org.mobileHost[5].wlan[1].mac sentDownPk:count 0
attr interpolationmode none
attr source packetSentToLower
attr title "packets sent to lower layer, count"
scalar org.mobileHost[5].wlan[1].mac sentDownPk:sum(packetBytes) 0
attr interpolationmode none
attr source packetSentToLower
attr title "packets sent to lower layer, sum(packetBytes)"
statistic org.mobileHost[5].wlan[1].radio symbolErrorRate:histogram
field count 0
field mean nan
field stddev nan
field min nan
field max nan
field sum 0
field sqrsum 0
attr source symbolErrorRate
attr title "Symbol error rate, histogram"
bin	-inf	0
bin	0	0
bin	1	0
statistic org.mobileHost[5].wlan[1].radio bitErrorRate:histogram
field count 0
field mean nan
field stddev nan
field min nan
field max nan
field sum 0
field sqrsum 0
attr source bitErrorRate
attr title "Bit error rate, histogram"
bin	-inf	0
bin	0	0
bin	1	0
statistic org.mobileHost[5].wlan[1].radio packetErrorRate:histogram
field count 0
field mean nan
field stddev nan
field min nan
field max nan
field sum 0
field sqrsum 0
attr source packetErrorRate
attr title "Packet error rate, histogram"
bin	-inf	0
bin	0	0
bin	1	0
statistic org.mobileHost[5].wlan[1].radio minSNIR:histogram
field count 0
field mean nan
field stddev nan
field min nan
field max nan
field sum 0
field sqrsum 0
attr source minSNIR
attr title "Min SNIR, histogram"
bin	-inf	0
bin	0	0
bin	1	0
scalar org.mobileHost[5].wlan[1].radio transmissionState:count 0
attr interpolationmode sample-hold
attr source transmissionStateChanged
attr title "Radio transmission state, count"
scalar org.mobileHost[5].wlan[1].radio receptionState:count 1
attr interpolationmode sample-hold
attr source receptionStateChanged
attr title "Radio reception state, count"
scalar org.mobileHost[5].wlan[1].radio radioMode:count 2
attr interpolationmode sample-hold
attr source radioModeChanged
attr title "Radio mode, count"
statistic org.mobileHost[5].wlan[1].radio radioChannel:histogram
field count 1
field mean 2
field stddev nan
field min 2
field max 2
field sum 2
field sqrsum 4
attr interpolationmode sample-hold
attr source radioChannelChanged
attr title "Radio channel, histogram"
bin	-inf	0
bin	1	0
bin	2	1
bin	3	0
scalar org.mobileHost[6].networkLayer.arp sentReply:count 0
attr title "ARP replies sent, count"
scalar org.mobileHost[6].networkLayer.arp sentReq:count 0
attr title "ARP request sent, count"
scalar org.mobileHost[6].networkLayer.arp initiatedARPResolution:count 0
attr title "ARP initiated resolutions, count"
scalar org.mobileHost[6].networkLayer.arp failedARPResolution:count 0
attr title "ARP failed resolutions, count"
scalar org.mobileHost[6].networkLayer.arp completedARPResolution:count 0
attr title "ARP completed resolutions, count"
scalar org.mobileHost[6].lo0.lo droppedPkBitError:count 0
attr interpolationmode none
attr source dropPkBitError
attr title "packets dropped/bit error, count"
scalar org.mobileHost[6].lo0.lo droppedPkBitError:sum(packetBytes) 0
attr interpolationmode none
attr source dropPkBitError
attr title "packets dropped/bit error, sum(packetBytes)"
scalar org.mobileHost[6].lo0.lo rcvdPkFromHL:count 0
attr interpolationmode none
attr source packetReceivedFromUpper
attr title "packets received from higher layer, count"
scalar org.mobileHost[6].lo0.lo rcvdPkFromHL:sum(packetBytes) 0
attr interpolationmode none
attr source packetReceivedFromUpper
attr title "packets received from higher layer, sum(packetBytes)"
scalar org.mobileHost[6].lo0.lo passedUpPk:count 0
attr interpolationmode none
attr source packetSentToUpper
attr title "packets passed to higher layer, count"
scalar org.mobileHost[6].lo0.lo passedUpPk:sum(packetBytes) 0
attr interpolationmode none
attr source packetSentToUpper
attr title "packets passed to higher layer, sum(packetBytes)"
scalar org.mobileHost[6].wlan[0].mac.statistics numReceivedUnicast 0
scalar org.mobileHost[6].wlan[0].mac.statistics numReceivedBroadcast 0
scalar org.mobileHost[6].wlan[0].mac.statistics numReceivedMulticast 0
scalar org.mobileHost[6].wlan[0].mac.statistics numReceivedNotForUs 0
scalar org.mobileHost[6].wlan[0].mac.statistics numReceivedErroneous 0
scalar org.mobileHost[6].wlan[0].mac rcvdPkFromHL:count 0
attr interpolationmode none
attr source packetReceivedFromUpper
attr title "packets received from higher layer, count"
scalar org.mobileHost[6].wlan[0].mac rcvdPkFromHL:sum(packetBytes) 0
attr interpolationmode none
attr source packetReceivedFromUpper
attr title "packets received from higher layer, sum(packetBytes)"
scalar org.mobileHost[6].wlan[0].mac passedUpPk:count 0
attr interpolationmode none
attr source packetSentToUpper
attr title "packets passed to higher layer, count"
scalar org.mobileHost[6].wlan[0].mac passedUpPk:sum(packetBytes) 0
attr interpolationmode none
attr source packetSentToUpper
attr title "packets passed to higher layer, sum(packetBytes)"
scalar org.mobileHost[6].wlan[0].mac rcvdPkFromLL:count 0
attr interpolationmode none
attr source packetReceivedFromLower
attr title "packets received from lower layer, count"
scalar org.mobileHost[6].wlan[0].mac rcvdPkFromLL:sum(packetBytes) 0
attr interpolationmode none
attr source packetReceivedFromLower
attr title "packets received from lower layer, sum(packetBytes)"
scalar org.mobileHost[6].wlan[0].mac sentDownPk:count 0
attr interpolationmode none
attr source packetSentToLower
attr title "packets sent to lower layer, count"
scalar org.mobileHost[6].wlan[0].mac sentDownPk:sum(packetBytes) 0
attr interpolationmode none
attr source packetSentToLower
attr title "packets sent to lower layer, sum(packetBytes)"
statistic org.mobileHost[6].wlan[0].radio symbolErrorRate:histogram
field count 0
field mean nan
field stddev nan
field min nan
field max nan
field sum 0
field sqrsum 0
attr source symbolErrorRate
attr title "Symbol error rate, histogram"
bin	-inf	0
bin	0	0
bin	1	0
statistic org.mobileHost[6].wlan[0].radio bitErrorRate:histogram
field count 0
field mean nan
field stddev nan
field min nan
field max nan
field sum 0
field sqrsum 0
attr source bitErrorRate
attr title "Bit error rate, histogram"
bin	-inf	0
bin	0	0
bin	1	0
statistic org.mobileHost[6].wlan[0].radio packetErrorRate:histogram
field count 0
field mean nan
field stddev nan
field min nan
field max nan
field sum 0
field sqrsum 0
attr source packetErrorRate
attr title "Packet error rate, histogram"
bin	-inf	0
bin	0	0
bin	1	0
statistic org.mobileHost[6].wlan[0].radio minSNIR:histogram
field count 0
field mean nan
field stddev nan
field min nan
field max nan
field sum 0
field sqrsum 0
attr source minSNIR
attr title "Min SNIR, histogram"
bin	-inf	0
bin	0	0
bin	1	0
scalar org.mobileHost[6].wlan[0].radio transmissionState:count 0
attr interpolationmode sample-hold
attr source transmissionStateChanged
attr title "Radio transmission state, count"
scalar org.mobileHost[6].wlan[0].radio receptionState:count 1
attr interpolationmode sample-hold
attr source receptionStateChanged
attr title "Radio reception state, count"
scalar org.mobileHost[6].wlan[0].radio radioMode:count 2
attr interpolationmode sample-hold
attr source radioModeChanged
attr title "Radio mode, count"
statistic org.mobileHost[6].wlan[0].radio radioChannel:histogram
field count 1
field mean 1
field stddev nan
field min 1
field max 1
field sum 1
field sqrsum 1
attr interpolationmode sample-hold
attr source radioChannelChanged
attr title "Radio channel, histogram"
bin	-inf	0
bin	0	0
bin	1	1
bin	2	0
scalar org.mobileHost[6].wlan[1].mac.statistics numReceivedUnicast 0
scalar org.mobileHost[6].wlan[1].mac.statistics numReceivedBroadcast 0
scalar org.mobileHost[6].wlan[1].mac.statistics numReceivedMulticast 0
scalar org.mobileHost[6].wlan[1].mac.statistics numReceivedNotForUs 0
scalar org.mobileHost[6].wlan[1].mac.statistics numReceivedErroneous 0
scalar org.mobileHost[6].wlan[1].mac rcvdPkFromHL:count 0
attr interpolationmode none
attr source packetReceivedFromUpper
attr title "packets received from higher layer, count"
scalar org.mobileHost[6].wlan[1].mac rcvdPkFromHL:sum(packetBytes) 0
attr interpolationmode none
attr source packetReceivedFromUpper
attr title "packets received from higher layer, sum(packetBytes)"
scalar org.mobileHost[6].wlan[1].mac passedUpPk:count 0
attr interpolationmode none
attr source packetSentToUpper
attr title "packets passed to higher layer, count"
scalar org.mobileHost[6].wlan[1].mac passedUpPk:sum(packetBytes) 0
attr interpolationmode none
attr source packetSentToUpper
attr title "packets passed to higher layer, sum(packetBytes)"
scalar org.mobileHost[6].wlan[1].mac rcvdPkFromLL:count 0
attr interpolationmode none
attr source packetReceivedFromLower
attr title "packets received from lower layer, count"
scalar org.mobileHost[6].wlan[1].mac rcvdPkFromLL:sum(packetBytes) 0
attr interpolationmode none
attr source packetReceivedFromLower
attr title "packets received from lower layer, sum(packetBytes)"
scalar org.mobileHost[6].wlan[1].mac sentDownPk:count 0
attr interpolationmode none
attr source packetSentToLower
attr title "packets sent to lower layer, count"
scalar org.mobileHost[6].wlan[1].mac sentDownPk:sum(packetBytes) 0
attr interpolationmode none
attr source packetSentToLower
attr title "packets sent to lower layer, sum(packetBytes)"
statistic org.mobileHost[6].wlan[1].radio symbolErrorRate:histogram
field count 0
field mean nan
field stddev nan
field min nan
field max nan
field sum 0
field sqrsum 0
attr source symbolErrorRate
attr title "Symbol error rate, histogram"
bin	-inf	0
bin	0	0
bin	1	0
statistic org.mobileHost[6].wlan[1].radio bitErrorRate:histogram
field count 0
field mean nan
field stddev nan
field min nan
field max nan
field sum 0
field sqrsum 0
attr source bitErrorRate
attr title "Bit error rate, histogram"
bin	-inf	0
bin	0	0
bin	1	0
statistic org.mobileHost[6].wlan[1].radio packetErrorRate:histogram
field count 0
field mean nan
field stddev nan
field min nan
field max nan
field sum 0
field sqrsum 0
attr source packetErrorRate
attr title "Packet error rate, histogram"
bin	-inf	0
bin	0	0
bin	1	0
statistic org.mobileHost[6].wlan[1].radio minSNIR:histogram
field count 0
field mean nan
field stddev nan
field min nan
field max nan
field sum 0
field sqrsum 0
attr source minSNIR
attr title "Min SNIR, histogram"
bin	-inf	0
bin	0	0
bin	1	0
scalar org.mobileHost[6].wlan[1].radio transmissionState:count 0
attr interpolationmode sample-hold
attr source transmissionStateChanged
attr title "Radio transmission state, count"
scalar org.mobileHost[6].wlan[1].radio receptionState:count 1
attr interpolationmode sample-hold
attr source receptionStateChanged
attr title "Radio reception state, count"
scalar org.mobileHost[6].wlan[1].radio radioMode:count 2
attr interpolationmode sample-hold
attr source radioModeChanged
attr title "Radio mode, count"
statistic org.mobileHost[6].wlan[1].radio radioChannel:histogram
field count 1
field mean 2
field stddev nan
field min 2
field max 2
field sum 2
field sqrsum 4
attr interpolationmode sample-hold
attr source radioChannelChanged
attr title "Radio channel, histogram"
bin	-inf	0
bin	1	0
bin	2	1
bin	3	0
scalar org.mobileHost[7].networkLayer.arp sentReply:count 0
attr title "ARP replies sent, count"
scalar org.mobileHost[7].networkLayer.arp sentReq:count 0
attr title "ARP request sent, count"
scalar org.mobileHost[7].networkLayer.arp initiatedARPResolution:count 0
attr title "ARP initiated resolutions, count"
scalar org.mobileHost[7].networkLayer.arp failedARPResolution:count 0
attr title "ARP failed resolutions, count"
scalar org.mobileHost[7].networkLayer.arp completedARPResolution:count 0
attr title "ARP completed resolutions, count"
scalar org.mobileHost[7].lo0.lo droppedPkBitError:count 0
attr interpolationmode none
attr source dropPkBitError
attr title "packets dropped/bit error, count"
scalar org.mobileHost[7].lo0.lo droppedPkBitError:sum(packetBytes) 0
attr interpolationmode none
attr source dropPkBitError
attr title "packets dropped/bit error, sum(packetBytes)"
scalar org.mobileHost[7].lo0.lo rcvdPkFromHL:count 0
attr interpolationmode none
attr source packetReceivedFromUpper
attr title "packets received from higher layer, count"
scalar org.mobileHost[7].lo0.lo rcvdPkFromHL:sum(packetBytes) 0
attr interpolationmode none
attr source packetReceivedFromUpper
attr title "packets received from higher layer, sum(packetBytes)"
scalar org.mobileHost[7].lo0.lo passedUpPk:count 0
attr interpolationmode none
attr source packetSentToUpper
attr title "packets passed to higher layer, count"
scalar org.mobileHost[7].lo0.lo passedUpPk:sum(packetBytes) 0
attr interpolationmode none
attr source packetSentToUpper
attr title "packets passed to higher layer, sum(packetBytes)"
scalar org.mobileHost[7].wlan[0].mac.statistics numReceivedUnicast 0
scalar org.mobileHost[7].wlan[0].mac.statistics numReceivedBroadcast 0
scalar org.mobileHost[7].wlan[0].mac.statistics numReceivedMulticast 0
scalar org.mobileHost[7].wlan[0].mac.statistics numReceivedNotForUs 0
scalar org.mobileHost[7].wlan[0].mac.statistics numReceivedErroneous 0
scalar org.mobileHost[7].wlan[0].mac rcvdPkFromHL:count 0
attr interpolationmode none
attr source packetReceivedFromUpper
attr title "packets received from higher layer, count"
scalar org.mobileHost[7].wlan[0].mac rcvdPkFromHL:sum(packetBytes) 0
attr interpolationmode none
attr source packetReceivedFromUpper
attr title "packets received from higher layer, sum(packetBytes)"
scalar org.mobileHost[7].wlan[0].mac passedUpPk:count 0
attr interpolationmode none
attr source packetSentToUpper
attr title "packets passed to higher layer, count"
scalar org.mobileHost[7].wlan[0].mac passedUpPk:sum(packetBytes) 0
attr interpolationmode none
attr source packetSentToUpper
attr title "packets passed to higher layer, sum(packetBytes)"
scalar org.mobileHost[7].wlan[0].mac rcvdPkFromLL:count 0
attr interpolationmode none
attr source packetReceivedFromLower
attr title "packets received from lower layer, count"
scalar org.mobileHost[7].wlan[0].mac rcvdPkFromLL:sum(packetBytes) 0
attr interpolationmode none
attr source packetReceivedFromLower
attr title "packets received from lower layer, sum(packetBytes)"
scalar org.mobileHost[7].wlan[0].mac sentDownPk:count 0
attr interpolationmode none
attr source packetSentToLower
attr title "packets sent to lower layer, count"
scalar org.mobileHost[7].wlan[0].mac sentDownPk:sum(packetBytes) 0
attr interpolationmode none
attr source packetSentToLower
attr title "packets sent to lower layer, sum(packetBytes)"
statistic org.mobileHost[7].wlan[0].radio symbolErrorRate:histogram
field count 0
field mean nan
field stddev nan
field min nan
field max nan
field sum 0
field sqrsum 0
attr source symbolErrorRate
attr title "Symbol error rate, histogram"
bin	-inf	0
bin	0	0
bin	1	0
statistic org.mobileHost[7].wlan[0].radio bitErrorRate:histogram
field count 0
field mean nan
field stddev nan
field min nan
field max nan
field sum 0
field sqrsum 0
attr source bitErrorRate
attr title "Bit error rate, histogram"
bin	-inf	0
bin	0	0
bin	1	0
statistic org.mobileHost[7].wlan[0].radio packetErrorRate:histogram
field count 0
field mean nan
field stddev nan
field min nan
field max nan
field sum 0
field sqrsum 0
attr source packetErrorRate
attr title "Packet error rate, histogram"
bin	-inf	0
bin	0	0
bin	1	0
statistic org.mobileHost[7].wlan[0].radio minSNIR:histogram
field count 0
field mean nan
field stddev nan
field min nan
field max nan
field sum 0
field sqrsum 0
attr source minSNIR
attr title "Min SNIR, histogram"
bin	-inf	0
bin	0	0
bin	1	0
scalar org.mobileHost[7].wlan[0].radio transmissionState:count 0
attr interpolationmode sample-hold
attr source transmissionStateChanged
attr title "Radio transmission state, count"
scalar org.mobileHost[7].wlan[0].radio receptionState:count 1
attr interpolationmode sample-hold
attr source receptionStateChanged
attr title "Radio reception state, count"
scalar org.mobileHost[7].wlan[0].radio radioMode:count 2
attr interpolationmode sample-hold
attr source radioModeChanged
attr title "Radio mode, count"
statistic org.mobileHost[7].wlan[0].radio radioChannel:histogram
field count 1
field mean 0
field stddev nan
field min 0
field max 0
field sum 0
field sqrsum 0
attr interpolationmode sample-hold
attr source radioChannelChanged
attr title "Radio channel, histogram"
bin	-inf	0
bin	-0.5	0
bin	-0.48	0
bin	-0.46	0
bin	-0.44	0
bin	-0.42	0
bin	-0.4	0
bin	-0.38	0
bin	-0.36	0
bin	-0.34	0
bin	-0.32	0
bin	-0.3	0
bin	-0.28	0
bin	-0.26	0
bin	-0.24	0
bin	-0.22	0
bin	-0.2	0
bin	-0.18	0
bin	-0.16	0
bin	-0.14	0
bin	-0.12	0
bin	-0.1	0
bin	-0.08	0
bin	-0.06	0
bin	-0.04	0
bin	-0.02	0
bin	0	1
bin	0.02	0
bin	0.04	0
bin	0.06	0
bin	0.08	0
bin	0.1	0
bin	0.12	0
bin	0.14	0
bin	0.16	0
bin	0.18	0
bin	0.2	0
bin	0.22	0
bin	0.24	0
bin	0.26	0
bin	0.28	0
bin	0.3	0
bin	0.32	0
bin	0.34	0
bin	0.36	0
bin	0.38	0
bin	0.4	0
bin	0.42	0
bin	0.44	0
bin	0.46	0
bin	0.48	0
bin	0.5	0
scalar org.mobileHost[7].wlan[1].mac.statistics numReceivedUnicast 0
scalar org.mobileHost[7].wlan[1].mac.statistics numReceivedBroadcast 0
scalar org.mobileHost[7].wlan[1].mac.statistics numReceivedMulticast 0
scalar org.mobileHost[7].wlan[1].mac.statistics numReceivedNotForUs 0
scalar org.mobileHost[7].wlan[1].mac.statistics numReceivedErroneous 0
scalar org.mobileHost[7].wlan[1].mac rcvdPkFromHL:count 0
attr interpolationmode none
attr source packetReceivedFromUpper
attr title "packets received from higher layer, count"
scalar org.mobileHost[7].wlan[1].mac rcvdPkFromHL:sum(packetBytes) 0
attr interpolationmode none
attr source packetReceivedFromUpper
attr title "packets received from higher layer, sum(packetBytes)"
scalar org.mobileHost[7].wlan[1].mac passedUpPk:count 0
attr interpolationmode none
attr source packetSentToUpper
attr title "packets passed to higher layer, count"
scalar org.mobileHost[7].wlan[1].mac passedUpPk:sum(packetBytes) 0
attr interpolationmode none
attr source packetSentToUpper
attr title "packets passed to higher layer, sum(packetBytes)"
scalar org.mobileHost[7].wlan[1].mac rcvdPkFromLL:count 0
attr interpolationmode none
attr source packetReceivedFromLower
attr title "packets received from lower layer, count"
scalar org.mobileHost[7].wlan[1].mac rcvdPkFromLL:sum(packetBytes) 0
attr interpolationmode none
attr source packetReceivedFromLower
attr title "packets received from lower layer, sum(packetBytes)"
scalar org.mobileHost[7].wlan[1].mac sentDownPk:count 0
attr interpolationmode none
attr source packetSentToLower
attr title "packets sent to lower layer, count"
scalar org.mobileHost[7].wlan[1].mac sentDownPk:sum(packetBytes) 0
attr interpolationmode none
attr source packetSentToLower
attr title "packets sent to lower layer, sum(packetBytes)"
statistic org.mobileHost[7].wlan[1].radio symbolErrorRate:histogram
field count 0
field mean nan
field stddev nan
field min nan
field max nan
field sum 0
field sqrsum 0
attr source symbolErrorRate
attr title "Symbol error rate, histogram"
bin	-inf	0
bin	0	0
bin	1	0
statistic org.mobileHost[7].wlan[1].radio bitErrorRate:histogram
field count 0
field mean nan
field stddev nan
field min nan
field max nan
field sum 0
field sqrsum 0
attr source bitErrorRate
attr title "Bit error rate, histogram"
bin	-inf	0
bin	0	0
bin	1	0
statistic org.mobileHost[7].wlan[1].radio packetErrorRate:histogram
field count 0
field mean nan
field stddev nan
field min nan
field max nan
field sum 0
field sqrsum 0
attr source packetErrorRate
attr title "Packet error rate, histogram"
bin	-inf	0
bin	0	0
bin	1	0
statistic org.mobileHost[7].wlan[1].radio minSNIR:histogram
field count 0
field mean nan
field stddev nan
field min nan
field max nan
field sum 0
field sqrsum 0
attr source minSNIR
[...]
bin	-inf	0
bin	0	0
bin	1	0
statistic org.mobileHost[13].wlan[1].radio bitErrorRate:histogram
field count 0
field mean nan
field stddev nan
field min nan
field max nan
field sum 0
field sqrsum 0
attr source bitErrorRate
attr title "Bit error rate, histogram"
bin	-inf	0
bin	0	0
bin	1	0
statistic org.mobileHost[13].wlan[1].radio packetErrorRate:histogram
field count 0
field mean nan
field stddev nan
field min nan
field max nan
field sum 0
field sqrsum 0
attr source packetErrorRate
attr title "Packet error rate, histogram"
bin	-inf	0
bin	0	0
bin	1	0
statistic org.mobileHost[13].wlan[1].radio minSNIR:histogram
field count 0
field mean nan
field stddev nan
field min nan
field max nan
field sum 0
field sqrsum 0
attr source minSNIR
attr title "Min SNIR, histogram"
bin	-inf	0
bin	0	0
bin	1	0
scalar org.mobileHost[13].wlan[1].radio transmissionState:count 0
attr interpolationmode sample-hold
attr source transmissionStateChanged
attr title "Radio transmission state, count"
scalar org.mobileHost[13].wlan[1].radio receptionState:count 1
attr interpolationmode sample-hold
attr source receptionStateChanged
attr title "Radio reception state, count"
scalar org.mobileHost[13].wlan[1].radio radioMode:count 2
attr interpolationmode sample-hold
attr source radioModeChanged
attr title "Radio mode, count"
statistic org.mobileHost[13].wlan[1].radio radioChannel:histogram
field count 1
field mean 2
field stddev nan
field min 2
field max 2
field sum 2
field sqrsum 4
attr interpolationmode sample-hold
attr source radioChannelChanged
attr title "Radio channel, histogram"
bin	-inf	0
bin	1	0
bin	2	1
bin	3	0
scalar org.mobileHost[14].networkLayer.arp sentReply:count 0
attr title "ARP replies sent, count"
scalar org.mobileHost[14].networkLayer.arp sentReq:count 0
attr title "ARP request sent, count"
scalar org.mobileHost[14].networkLayer.arp initiatedARPResolution:count 0
attr title "ARP initiated resolutions, count"
scalar org.mobileHost[14].networkLayer.arp failedARPResolution:count 0
attr title "ARP failed resolutions, count"
scalar org.mobileHost[14].networkLayer.arp completedARPResolution:count 0
attr title "ARP completed resolutions, count"
scalar org.mobileHost[14].lo0.lo droppedPkBitError:count 0
attr interpolationmode none
attr source dropPkBitError
attr title "packets dropped/bit error, count"
scalar org.mobileHost[14].lo0.lo droppedPkBitError:sum(packetBytes) 0
attr interpolationmode none
attr source dropPkBitError
attr title "packets dropped/bit error, sum(packetBytes)"
scalar org.mobileHost[14].lo0.lo rcvdPkFromHL:count 0
attr interpolationmode none
attr source packetReceivedFromUpper
attr title "packets received from higher layer, count"
scalar org.mobileHost[14].lo0.lo rcvdPkFromHL:sum(packetBytes) 0
attr interpolationmode none
attr source packetReceivedFromUpper
attr title "packets received from higher layer, sum(packetBytes)"
scalar org.mobileHost[14].lo0.lo passedUpPk:count 0
attr interpolationmode none
attr source packetSentToUpper
attr title "packets passed to higher layer, count"
scalar org.mobileHost[14].lo0.lo passedUpPk:sum(packetBytes) 0
attr interpolationmode none
attr source packetSentToUpper
attr title "packets passed to higher layer, sum(packetBytes)"
scalar org.mobileHost[14].wlan[0].mac.statistics numReceivedUnicast 0
scalar org.mobileHost[14].wlan[0].mac.statistics numReceivedBroadcast 0
scalar org.mobileHost[14].wlan[0].mac.statistics numReceivedMulticast 0
scalar org.mobileHost[14].wlan[0].mac.statistics numReceivedNotForUs 0
scalar org.mobileHost[14].wlan[0].mac.statistics numReceivedErroneous 0
scalar org.mobileHost[14].wlan[0].mac rcvdPkFromHL:count 0
attr interpolationmode none
attr source packetReceivedFromUpper
attr title "packets received from higher layer, count"
scalar org.mobileHost[14].wlan[0].mac rcvdPkFromHL:sum(packetBytes) 0
attr interpolationmode none
attr source packetReceivedFromUpper
attr title "packets received from higher layer, sum(packetBytes)"
scalar org.mobileHost[14].wlan[0].mac passedUpPk:count 0
attr interpolationmode none
attr source packetSentToUpper
attr title "packets passed to higher layer, count"
scalar org.mobileHost[14].wlan[0].mac passedUpPk:sum(packetBytes) 0
attr interpolationmode none
attr source packetSentToUpper
attr title "packets passed to higher layer, sum(packetBytes)"
scalar org.mobileHost[14].wlan[0].mac rcvdPkFromLL:count 0
attr interpolationmode none
attr source packetReceivedFromLower
attr title "packets received from lower layer, count"
scalar org.mobileHost[14].wlan[0].mac rcvdPkFromLL:sum(packetBytes) 0
attr interpolationmode none
attr source packetReceivedFromLower
attr title "packets received from lower layer, sum(packetBytes)"
scalar org.mobileHost[14].wlan[0].mac sentDownPk:count 0
attr interpolationmode none
attr source packetSentToLower
attr title "packets sent to lower layer, count"
scalar org.mobileHost[14].wlan[0].mac sentDownPk:sum(packetBytes) 0
attr interpolationmode none
attr source packetSentToLower
attr title "packets sent to lower layer, sum(packetBytes)"
statistic org.mobileHost[14].wlan[0].radio symbolErrorRate:histogram
field count 0
field mean nan
field stddev nan
field min nan
field max nan
field sum 0
field sqrsum 0
attr source symbolErrorRate
attr title "Symbol error rate, histogram"
bin	-inf	0
bin	0	0
bin	1	0
statistic org.mobileHost[14].wlan[0].radio bitErrorRate:histogram
field count 0
field mean nan
field stddev nan
field min nan
field max nan
field sum 0
field sqrsum 0
attr source bitErrorRate
attr title "Bit error rate, histogram"
bin	-inf	0
bin	0	0
bin	1	0
statistic org.mobileHost[14].wlan[0].radio packetErrorRate:histogram
field count 0
field mean nan
field stddev nan
field min nan
field max nan
field sum 0
field sqrsum 0
attr source packetErrorRate
attr title "Packet error rate, histogram"
bin	-inf	0
bin	0	0
bin	1	0
statistic org.mobileHost[14].wlan[0].radio minSNIR:histogram
field count 0
field mean nan
field stddev nan
field min nan
field max nan
field sum 0
field sqrsum 0
attr source minSNIR
attr title "Min SNIR, histogram"
bin	-inf	0
bin	0	0
bin	1	0
scalar org.mobileHost[14].wlan[0].radio transmissionState:count 0
attr interpolationmode sample-hold
attr source transmissionStateChanged
attr title "Radio transmission state, count"
scalar org.mobileHost[14].wlan[0].radio receptionState:count 1
attr interpolationmode sample-hold
attr source receptionStateChanged
attr title "Radio reception state, count"
scalar org.mobileHost[14].wlan[0].radio radioMode:count 2
attr interpolationmode sample-hold
attr source radioModeChanged
attr title "Radio mode, count"
statistic org.mobileHost[14].wlan[0].radio radioChannel:histogram
field count 1
field mean 1
field stddev nan
field min 1
field max 1
field sum 1
field sqrsum 1
attr interpolationmode sample-hold
attr source radioChannelChanged
attr title "Radio channel, histogram"
bin	-inf	0
bin	0	0
bin	1	1
bin	2	0
scalar org.mobileHost[14].wlan[1].mac.statistics numReceivedUnicast 0
scalar org.mobileHost[14].wlan[1].mac.statistics numReceivedBroadcast 0
scalar org.mobileHost[14].wlan[1].mac.statistics numReceivedMulticast 0
scalar org.mobileHost[14].wlan[1].mac.statistics numReceivedNotForUs 0
scalar org.mobileHost[14].wlan[1].mac.statistics numReceivedErroneous 0
scalar org.mobileHost[14].wlan[1].mac rcvdPkFromHL:count 0
attr interpolationmode none
attr source packetReceivedFromUpper
attr title "packets received from higher layer, count"
scalar org.mobileHost[14].wlan[1].mac rcvdPkFromHL:sum(packetBytes) 0
attr interpolationmode none
attr source packetReceivedFromUpper
attr title "packets received from higher layer, sum(packetBytes)"
scalar org.mobileHost[14].wlan[1].mac passedUpPk:count 0
attr interpolationmode none
attr source packetSentToUpper
attr title "packets passed to higher layer, count"
scalar org.mobileHost[14].wlan[1].mac passedUpPk:sum(packetBytes) 0
attr interpolationmode none
attr source packetSentToUpper
attr title "packets passed to higher layer, sum(packetBytes)"
scalar org.mobileHost[14].wlan[1].mac rcvdPkFromLL:count 0
attr interpolationmode none
attr source packetReceivedFromLower
attr title "packets received from lower layer, count"
scalar org.mobileHost[14].wlan[1].mac rcvdPkFromLL:sum(packetBytes) 0
attr interpolationmode none
attr source packetReceivedFromLower
attr title "packets received from lower layer, sum(packetBytes)"
scalar org.mobileHost[14].wlan[1].mac sentDownPk:count 0
attr interpolationmode none
attr source packetSentToLower
attr title "packets sent to lower layer, count"
scalar org.mobileHost[14].wlan[1].mac sentDownPk:sum(packetBytes) 0
attr interpolationmode none
attr source packetSentToLower
attr title "packets sent to lower layer, sum(packetBytes)"
statistic org.mobileHost[14].wlan[1].radio symbolErrorRate:histogram
field count 0
field mean nan
field stddev nan
field min nan
field max nan
field sum 0
field sqrsum 0
attr source symbolErrorRate
attr title "Symbol error rate, histogram"
bin	-inf	0
bin	0	0
bin	1	0
statistic org.mobileHost[14].wlan[1].radio bitErrorRate:histogram
field count 0
field mean nan
field stddev nan
field min nan
field max nan
field sum 0
field sqrsum 0
attr source bitErrorRate
attr title "Bit error rate, histogram"
bin	-inf	0
bin	0	0
bin	1	0
statistic org.mobileHost[14].wlan[1].radio packetErrorRate:histogram
field count 0
field mean nan
field stddev nan
field min nan
field max nan
field sum 0
field sqrsum 0
attr source packetErrorRate
attr title "Packet error rate, histogram"
bin	-inf	0
bin	0	0
bin	1	0
statistic org.mobileHost[14].wlan[1].radio minSNIR:histogram
field count 0
field mean nan
field stddev nan
field min nan
field max nan
field sum 0
field sqrsum 0
attr source minSNIR
attr title "Min SNIR, histogram"
bin	-inf	0
bin	0	0
bin	1	0
scalar org.mobileHost[14].wlan[1].radio transmissionState:count 0
attr interpolationmode sample-hold
attr source transmissionStateChanged
attr title "Radio transmission state, count"
scalar org.mobileHost[14].wlan[1].radio receptionState:count 1
attr interpolationmode sample-hold
attr source receptionStateChanged
attr title "Radio reception state, count"
scalar org.mobileHost[14].wlan[1].radio radioMode:count 2
attr interpolationmode sample-hold
attr source radioModeChanged
attr title "Radio mode, count"
statistic org.mobileHost[14].wlan[1].radio radioChannel:histogram
field count 1
field mean 2
field stddev nan
field min 2
field max 2
field sum 2
field sqrsum 4
attr interpolationmode sample-hold
attr source radioChannelChanged
attr title "Radio channel, histogram"
bin	-inf	0
bin	1	0
bin	2	1
bin	3	0
scalar org.mobileHost[15].networkLayer.arp sentReply:count 0
attr title "ARP replies sent, count"
scalar org.mobileHost[15].networkLayer.arp sentReq:count 0
attr title "ARP request sent, count"
scalar org.mobileHost[15].networkLayer.arp initiatedARPResolution:count 0
attr title "ARP initiated resolutions, count"
scalar org.mobileHost[15].networkLayer.arp failedARPResolution:count 0
attr title "ARP failed resolutions, count"
scalar org.mobileHost[15].networkLayer.arp completedARPResolution:count 0
attr title "ARP completed resolutions, count"
scalar org.mobileHost[15].lo0.lo droppedPkBitError:count 0
attr interpolationmode none
attr source dropPkBitError
attr title "packets dropped/bit error, count"
scalar org.mobileHost[15].lo0.lo droppedPkBitError:sum(packetBytes) 0
attr interpolationmode none
attr source dropPkBitError
attr title "packets dropped/bit error, sum(packetBytes)"
scalar org.mobileHost[15].lo0.lo rcvdPkFromHL:count 0
attr interpolationmode none
attr source packetReceivedFromUpper
attr title "packets received from higher layer, count"
scalar org.mobileHost[15].lo0.lo rcvdPkFromHL:sum(packetBytes) 0
attr interpolationmode none
attr source packetReceivedFromUpper
attr title "packets received from higher layer, sum(packetBytes)"
scalar org.mobileHost[15].lo0.lo passedUpPk:count 0
attr interpolationmode none
attr source packetSentToUpper
attr title "packets passed to higher layer, count"
scalar org.mobileHost[15].lo0.lo passedUpPk:sum(packetBytes) 0
attr interpolationmode none
attr source packetSentToUpper
attr title "packets passed to higher layer, sum(packetBytes)"
scalar org.mobileHost[15].wlan[0].mac.statistics numReceivedUnicast 0
scalar org.mobileHost[15].wlan[0].mac.statistics numReceivedBroadcast 0
scalar org.mobileHost[15].wlan[0].mac.statistics numReceivedMulticast 0
scalar org.mobileHost[15].wlan[0].mac.statistics numReceivedNotForUs 0
scalar org.mobileHost[15].wlan[0].mac.statistics numReceivedErroneous 0
scalar org.mobileHost[15].wlan[0].mac rcvdPkFromHL:count 0
attr interpolationmode none
attr source packetReceivedFromUpper
attr title "packets received from higher layer, count"
scalar org.mobileHost[15].wlan[0].mac rcvdPkFromHL:sum(packetBytes) 0
attr interpolationmode none
attr source packetReceivedFromUpper
attr title "packets received from higher layer, sum(packetBytes)"
scalar org.mobileHost[15].wlan[0].mac passedUpPk:count 0
attr interpolationmode none
attr source packetSentToUpper
attr title "packets passed to higher layer, count"
scalar org.mobileHost[15].wlan[0].mac passedUpPk:sum(packetBytes) 0
attr interpolationmode none
attr source packetSentToUpper
attr title "packets passed to higher layer, sum(packetBytes)"
scalar org.mobileHost[15].wlan[0].mac rcvdPkFromLL:count 0
attr interpolationmode none
attr source packetReceivedFromLower
attr title "packets received from lower layer, count"
scalar org.mobileHost[15].wlan[0].mac rcvdPkFromLL:sum(packetBytes) 0
attr interpolationmode none
attr source packetReceivedFromLower
attr title "packets received from lower layer, sum(packetBytes)"
scalar org.mobileHost[15].wlan[0].mac sentDownPk:count 0
attr interpolationmode none
attr source packetSentToLower
attr title "packets sent to lower layer, count"
scalar org.mobileHost[15].wlan[0].mac sentDownPk:sum(packetBytes) 0
attr interpolationmode none
attr source packetSentToLower
attr title "packets sent to lower layer, sum(packetBytes)"
statistic org.mobileHost[15].wlan[0].radio symbolErrorRate:histogram
field count 0
field mean nan
field stddev nan
field min nan
field max nan
field sum 0
field sqrsum 0
attr source symbolErrorRate
attr title "Symbol error rate, histogram"
bin	-inf	0
bin	0	0
bin	1	0
statistic org.mobileHost[15].wlan[0].radio bitErrorRate:histogram
field count 0
field mean nan
field stddev nan
field min nan
field max nan
field sum 0
field sqrsum 0
attr source bitErrorRate
attr title "Bit error rate, histogram"
bin	-inf	0
bin	0	0
bin	1	0
statistic org.mobileHost[15].wlan[0].radio packetErrorRate:histogram
field count 0
field mean nan
field stddev nan
field min nan
field max nan
field sum 0
field sqrsum 0
attr source packetErrorRate
attr title "Packet error rate, histogram"
bin	-inf	0
bin	0	0
bin	1	0
statistic org.mobileHost[15].wlan[0].radio minSNIR:histogram
field count 0
field mean nan
field stddev nan
field min nan
field max nan
field sum 0
field sqrsum 0
attr source minSNIR
attr title "Min SNIR, histogram"
bin	-inf	0
bin	0	0
bin	1	0
scalar org.mobileHost[15].wlan[0].radio transmissionState:count 0
attr interpolationmode sample-hold
attr source transmissionStateChanged
attr title "Radio transmission state, count"
scalar org.mobileHost[15].wlan[0].radio receptionState:count 1
attr interpolationmode sample-hold
attr source receptionStateChanged
attr title "Radio reception state, count"
scalar org.mobileHost[15].wlan[0].radio radioMode:count 2
attr interpolationmode sample-hold
attr source radioModeChanged
attr title "Radio mode, count"
statistic org.mobileHost[15].wlan[0].radio radioChannel:histogram
field count 1
field mean 0
field stddev nan
field min 0
field max 0
field sum 0
field sqrsum 0
attr interpolationmode sample-hold
attr source radioChannelChanged
attr title "Radio channel, histogram"
bin	-inf	0
bin	-0.5	0
bin	-0.48	0
bin	-0.46	0
bin	-0.44	0
bin	-0.42	0
bin	-0.4	0
bin	-0.38	0
bin	-0.36	0
bin	-0.34	0
bin	-0.32	0
bin	-0.3	0
bin	-0.28	0
bin	-0.26	0
bin	-0.24	0
bin	-0.22	0
bin	-0.2	0
bin	-0.18	0
bin	-0.16	0
bin	-0.14	0
bin	-0.12	0
bin	-0.1	0
bin	-0.08	0
bin	-0.06	0
bin	-0.04	0
bin	-0.02	0
bin	0	1
bin	0.02	0
bin	0.04	0
bin	0.06	0
bin	0.08	0
bin	0.1	0
bin	0.12	0
bin	0.14	0
bin	0.16	0
bin	0.18	0
bin	0.2	0
bin	0.22	0
bin	0.24	0
bin	0.26	0
bin	0.28	0
bin	0.3	0
bin	0.32	0
bin	0.34	0
bin	0.36	0
bin	0.38	0
bin	0.4	0
bin	0.42	0
bin	0.44	0
bin	0.46	0
bin	0.48	0
bin	0.5	0
scalar org.mobileHost[15].wlan[1].mac.statistics numReceivedUnicast 0
scalar org.mobileHost[15].wlan[1].mac.statistics numReceivedBroadcast 0
scalar org.mobileHost[15].wlan[1].mac.statistics numReceivedMulticast 0
scalar org.mobileHost[15].wlan[1].mac.statistics numReceivedNotForUs 0
scalar org.mobileHost[15].wlan[1].mac.statistics numReceivedErroneous 0
scalar org.mobileHost[15].wlan[1].mac rcvdPkFromHL:count 0
attr interpolationmode none
attr source packetReceivedFromUpper
attr title "packets received from higher layer, count"
scalar org.mobileHost[15].wlan[1].mac rcvdPkFromHL:sum(packetBytes) 0
attr interpolationmode none
attr source packetReceivedFromUpper
attr title "packets received from higher layer, sum(packetBytes)"
scalar org.mobileHost[15].wlan[1].mac passedUpPk:count 0
attr interpolationmode none
attr source packetSentToUpper
attr title "packets passed to higher layer, count"
scalar org.mobileHost[15].wlan[1].mac passedUpPk:sum(packetBytes) 0
attr interpolationmode none
attr source packetSentToUpper
attr title "packets passed to higher layer, sum(packetBytes)"
scalar org.mobileHost[15].wlan[1].mac rcvdPkFromLL:count 0
attr interpolationmode none
attr source packetReceivedFromLower
attr title "packets received from lower layer, count"
scalar org.mobileHost[15].wlan[1].mac rcvdPkFromLL:sum(packetBytes) 0
attr interpolationmode none
attr source packetReceivedFromLower
attr title "packets received from lower layer, sum(packetBytes)"
scalar org.mobileHost[15].wlan[1].mac sentDownPk:count 0
attr interpolationmode none
attr source packetSentToLower
attr title "packets sent to lower layer, count"
scalar org.mobileHost[15].wlan[1].mac sentDownPk:sum(packetBytes) 0
attr interpolationmode none
attr source packetSentToLower
attr title "packets sent to lower layer, sum(packetBytes)"
statistic org.mobileHost[15].wlan[1].radio symbolErrorRate:histogram
field count 0
field mean nan
field stddev nan
field min nan
field max nan
field sum 0
field sqrsum 0
attr source symbolErrorRate
attr title "Symbol error rate, histogram"
bin	-inf	0
bin	0	0
bin	1	0
statistic org.mobileHost[15].wlan[1].radio bitErrorRate:histogram
field count 0
field mean nan
field stddev nan
field min nan
field max nan
field sum 0
field sqrsum 0
attr source bitErrorRate
attr title "Bit error rate, histogram"
bin	-inf	0
bin	0	0
bin	1	0
statistic org.mobileHost[15].wlan[1].radio packetErrorRate:histogram
field count 0
field mean nan
field stddev nan
field min nan
field max nan
field sum 0
field sqrsum 0
attr source packetErrorRate
attr title "Packet error rate, histogram"
bin	-inf	0
bin	0	0
bin	1	0
statistic org.mobileHost[15].wlan[1].radio minSNIR:histogram
field count 0
field mean nan
field stddev nan
field min nan
field max nan
field sum 0
field sqrsum 0
attr source minSNIR
attr title "Min SNIR, histogram"
bin	-inf	0
bin	0	0
bin	1	0
scalar org.mobileHost[15].wlan[1].radio transmissionState:count 0
attr interpolationmode sample-hold
attr source transmissionStateChanged
attr title "Radio transmission state, count"
scalar org.mobileHost[15].wlan[1].radio receptionState:count 1
attr interpolationmode sample-hold
attr source receptionStateChanged
attr title "Radio reception state, count"
scalar org.mobileHost[15].wlan[1].radio radioMode:count 2
attr interpolationmode sample-hold
attr source radioModeChanged
attr title "Radio mode, count"
statistic org.mobileHost[15].wlan[1].radio radioChannel:histogram
field count 1
field mean 2
field stddev nan
field min 2
field max 2
field sum 2
field sqrsum 4
attr interpolationmode sample-hold
attr source radioChannelChanged
attr title "Radio channel, histogram"
bin	-inf	0
bin	1	0
bin	2	1
bin	3	0

