version 2
run RandomWPMobility-0-20180826-08:40:06-14832
attr configname RandomWPMobility
attr datetime 20180826-08:40:06
attr experiment RandomWPMobility
attr inifile omnetpp.ini
attr iterationvars ""
attr iterationvarsf ""
attr measurement ""
attr network MobileNetwork
attr processid 14832
attr repetition 0
attr replication #0
attr resultdir results
attr runnumber 0
attr seedset 0
param *.numHosts 5
param **.host*.mobilityType "\"RandomWPMobility\""
param **.host*.mobility.initFromDisplayString false
param **.host[0].mobility.speed 10*uniform(20mps,50mps)
param **.host*.mobility.speed uniform(20mps,50mps)
param **.host*.mobility.waitTime uniform(3s,8s)
param *.numHosts 2
param **.constraintAreaMinX 0m
param **.constraintAreaMinY 0m
param **.constraintAreaMinZ 0m
param **.constraintAreaMaxX 600m
param **.constraintAreaMaxY 400m
param **.constraintAreaMaxZ 0m
param **.updateInterval 0.1s
param **.mobility.initFromDisplayString false

vector 0 MobileNetwork.host[0] coordX:vector ETV
attr interpolationmode linear
attr source xCoord(mobilityPos(mobilityStateChanged))
attr title "coord X, vector"
vector 1 MobileNetwork.host[0] coordY:vector ETV
attr interpolationmode linear
attr source yCoord(mobilityPos(mobilityStateChanged))
attr title "coord Y, vector"
vector 2 MobileNetwork.host[1] coordX:vector ETV
attr interpolationmode linear
attr source xCoord(mobilityPos(mobilityStateChanged))
attr title "coord X, vector"
vector 3 MobileNetwork.host[1] coordY:vector ETV
attr interpolationmode linear
attr source yCoord(mobilityPos(mobilityStateChanged))
attr title "coord Y, vector"
vector 4 MobileNetwork.host[2] coordX:vector ETV
attr interpolationmode linear
attr source xCoord(mobilityPos(mobilityStateChanged))
attr title "coord X, vector"
vector 5 MobileNetwork.host[2] coordY:vector ETV
attr interpolationmode linear
attr source yCoord(mobilityPos(mobilityStateChanged))
attr title "coord Y, vector"
vector 6 MobileNetwork.host[3] coordX:vector ETV
attr interpolationmode linear
attr source xCoord(mobilityPos(mobilityStateChanged))
attr title "coord X, vector"
vector 7 MobileNetwork.host[3] coordY:vector ETV
attr interpolationmode linear
attr source yCoord(mobilityPos(mobilityStateChanged))
attr title "coord Y, vector"
vector 8 MobileNetwork.host[4] coordX:vector ETV
attr interpolationmode linear
attr source xCoord(mobilityPos(mobilityStateChanged))
attr title "coord X, vector"
vector 9 MobileNetwork.host[4] coordY:vector ETV
attr interpolationmode linear
attr source yCoord(mobilityPos(mobilityStateChanged))
attr title "coord Y, vector"
0	0	0	329.28810138255
0	1	0.1	358.76012855208
0	6	0.2	388.2321557216
0	11	0.3	417.70418289113
0	16	0.4	447.17621006065
0	21	0.494526276853	475.03502005711
0	26	0.594526276853	475.03502005711
0	31	0.694526276853	475.03502005711
0	36	0.794526276853	475.03502005711
0	41	0.894526276853	475.03502005711
0	46	0.994526276853	475.03502005711
0	51	1.094526276853	475.03502005711
0	56	1.194526276853	475.03502005711
0	61	1.294526276853	475.03502005711
0	66	1.394526276853	475.03502005711
0	71	1.494526276853	475.03502005711
0	76	1.594526276853	475.03502005711
0	81	1.694526276853	475.03502005711
0	86	1.794526276853	475.03502005711
0	91	1.894526276853	475.03502005711
0	96	1.994526276853	475.03502005711
0	101	2.094526276853	475.03502005711
0	106	2.194526276853	475.03502005711
0	111	2.294526276853	475.03502005711
0	116	2.394526276853	475.03502005711
0	121	2.494526276853	475.03502005711
0	126	2.594526276853	475.03502005711
0	131	2.694526276853	475.03502005711
0	136	2.794526276853	475.03502005711
0	141	2.894526276853	475.03502005711
0	146	2.994526276853	475.03502005711
0	151	3.094526276853	475.03502005711
0	156	3.194526276853	475.03502005711
0	161	3.294526276853	475.03502005711
0	166	3.394526276853	475.03502005711
0	171	3.494526276853	475.03502005711
0	176	3.594526276853	475.03502005711
0	181	3.694526276853	475.03502005711
0	186	3.794526276853	475.03502005711
0	191	3.894526276853	475.03502005711
0	196	3.994526276853	475.03502005711
0	201	4.094526276853	475.03502005711
0	207	4.194526276853	475.03502005711
0	212	4.294526276853	475.03502005711
0	217	4.394526276853	475.03502005711
0	222	4.494526276853	475.03502005711
0	227	4.594526276853	475.03502005711
0	233	4.694526276853	475.03502005711
0	238	4.794526276853	475.03502005711
0	243	4.894526276853	475.03502005711
0	248	4.994526276853	475.03502005711
0	253	5.094526276853	475.03502005711
0	258	5.194526276853	475.03502005711
0	263	5.294526276853	475.03502005711
0	268	5.394526276853	475.03502005711
0	273	5.494526276853	475.03502005711
0	278	5.594526276853	475.03502005711
0	283	5.694526276853	475.03502005711
0	288	5.794526276853	475.03502005711
0	293	5.894526276853	475.03502005711
0	298	5.994526276853	475.03502005711
0	303	6.094526276853	475.03502005711
0	308	6.194526276853	475.03502005711
0	313	6.294526276853	475.03502005711
0	318	6.394526276853	475.03502005711
0	323	6.494526276853	475.03502005711
0	328	6.594526276853	475.03502005711
0	333	6.694526276853	475.03502005711
0	338	6.794526276853	475.03502005711
0	343	6.894526276853	475.03502005711
0	348	6.994526276853	475.03502005711
0	353	7.094526276853	475.03502005711
0	358	7.194526276853	475.03502005711
0	363	7.294526276853	475.03502005711
0	368	7.394526276853	475.03502005711
0	373	7.494526276853	475.03502005711
0	378	7.594526276853	475.03502005711
0	383	7.694526276853	475.03502005711
0	389	7.794526276853	475.03502005711
0	394	7.894526276853	475.03502005711
0	399	7.994526276853	475.03502005711
0	404	8.094526276853	475.03502005711
0	409	8.194526276853	475.03502005711
0	414	8.294526276853	475.03502005711
0	419	8.387617991328	475.03502005711
0	424	8.487617991328	440.25099915429
0	429	8.587617991328	405.46697825147
0	434	8.687617991328	370.68295734865
0	439	8.787617991328	335.89893644583
0	445	8.887617991328	301.11491554301
0	448	8.957268644803	276.88761767931
1	0	0	237.13784655556
1	1	0.1	254.87798456979
1	6	0.2	272.61812258401
1	11	0.3	290.35826059824
1	16	0.4	308.09839861246
1	21	0.494526276853	324.86749058589
1	26	0.594526276853	324.86749058589
1	31	0.694526276853	324.86749058589
1	36	0.794526276853	324.86749058589
1	41	0.894526276853	324.86749058589
1	46	0.994526276853	324.86749058589
1	51	1.094526276853	324.86749058589
1	56	1.194526276853	324.86749058589
1	61	1.294526276853	324.86749058589
1	66	1.394526276853	324.86749058589
1	71	1.494526276853	324.86749058589
1	76	1.594526276853	324.86749058589
1	81	1.694526276853	324.86749058589
1	86	1.794526276853	324.86749058589
1	91	1.894526276853	324.86749058589
1	96	1.994526276853	324.86749058589
1	101	2.094526276853	324.86749058589
1	106	2.194526276853	324.86749058589
1	111	2.294526276853	324.86749058589
1	116	2.394526276853	324.86749058589
1	121	2.494526276853	324.86749058589
1	126	2.594526276853	324.86749058589
1	131	2.694526276853	324.86749058589
1	136	2.794526276853	324.86749058589
1	141	2.894526276853	324.86749058589
1	146	2.994526276853	324.86749058589
1	151	3.094526276853	324.86749058589
1	156	3.194526276853	324.86749058589
1	161	3.294526276853	324.86749058589
1	166	3.394526276853	324.86749058589
1	171	3.494526276853	324.86749058589
1	176	3.594526276853	324.86749058589
1	181	3.694526276853	324.86749058589
1	186	3.794526276853	324.86749058589
1	191	3.894526276853	324.86749058589
1	196	3.994526276853	324.86749058589
1	201	4.094526276853	324.86749058589
1	207	4.194526276853	324.86749058589
1	212	4.294526276853	324.86749058589
1	217	4.394526276853	324.86749058589
1	222	4.494526276853	324.86749058589
1	227	4.594526276853	324.86749058589
1	233	4.694526276853	324.86749058589
1	238	4.794526276853	324.86749058589
1	243	4.894526276853	324.86749058589
1	248	4.994526276853	324.86749058589
1	253	5.094526276853	324.86749058589
1	258	5.194526276853	324.86749058589
1	263	5.294526276853	324.86749058589
1	268	5.394526276853	324.86749058589
1	273	5.494526276853	324.86749058589
1	278	5.594526276853	324.86749058589
1	283	5.694526276853	324.86749058589
1	288	5.794526276853	324.86749058589
1	293	5.894526276853	324.86749058589
1	298	5.994526276853	324.86749058589
1	303	6.094526276853	324.86749058589
1	308	6.194526276853	324.86749058589
1	313	6.294526276853	324.86749058589
1	318	6.394526276853	324.86749058589
1	323	6.494526276853	324.86749058589
1	328	6.594526276853	324.86749058589
1	333	6.694526276853	324.86749058589
1	338	6.794526276853	324.86749058589
1	343	6.894526276853	324.86749058589
1	348	6.994526276853	324.86749058589
1	353	7.094526276853	324.86749058589
1	358	7.194526276853	324.86749058589
1	363	7.294526276853	324.86749058589
1	368	7.394526276853	324.86749058589
1	373	7.494526276853	324.86749058589
1	378	7.594526276853	324.86749058589
1	383	7.694526276853	324.86749058589
1	389	7.794526276853	324.86749058589
1	394	7.894526276853	324.86749058589
1	399	7.994526276853	324.86749058589
1	404	8.094526276853	324.86749058589
1	409	8.194526276853	324.86749058589
1	414	8.294526276853	324.86749058589
1	419	8.387617991328	324.86749058589
1	424	8.487617991328	304.38537620948
1	429	8.587617991328	283.90326183307
1	434	8.687617991328	263.42114745665
1	439	8.787617991328	242.93903308024
1	445	8.887617991328	222.45691870383
1	448	8.957268644803	208.19099219516
2	0	0	506.55944645405
2	2	0.1	502.538135928
2	7	0.2	498.51682540194
2	12	0.3	494.49551487589
2	17	0.4	490.47420434984
2	22	0.5	486.45289382378
2	27	0.6	482.43158329773
2	32	0.7	478.41027277168
2	37	0.8	474.38896224562
2	42	0.9	470.36765171957
2	47	1	466.34634119352
2	52	1.1	462.32503066747
2	57	1.2	458.30372014141
2	62	1.3	454.28240961536
2	67	1.4	450.26109908931
2	72	1.5	446.23978856325
2	77	1.6	442.2184780372
2	82	1.7	438.19716751115
2	87	1.8	434.1758569851
2	92	1.9	430.15454645904
2	97	2	426.13323593299
2	102	2.1	422.11192540694
2	107	2.2	418.09061488088
2	112	2.3	414.06930435483
2	117	2.4	410.04799382878
2	122	2.5	406.02668330273
2	127	2.6	402.00537277667
2	132	2.7	397.98406225062
2	137	2.8	393.96275172457
2	142	2.9	389.94144119851
2	147	3	385.92013067246
2	152	3.1	381.89882014641
2	157	3.2	377.87750962036
2	162	3.3	373.8561990943
2	167	3.4	369.83488856825
2	172	3.5	365.8135780422
2	177	3.6	361.79226751614
2	182	3.7	357.77095699009
2	187	3.8	353.74964646404
2	192	3.9	349.72833593799
2	197	4	345.70702541193
2	202	4.1	341.68571488588
2	206	4.121360614334	340.82673825324
2	211	4.221360614334	340.82673825324
2	216	4.321360614334	340.82673825324
2	221	4.421360614334	340.82673825324
2	226	4.521360614334	340.82673825324
2	231	4.621360614334	340.82673825324
2	236	4.721360614334	340.82673825324
2	241	4.821360614334	340.82673825324
2	246	4.921360614334	340.82673825324
2	251	5.021360614334	340.82673825324
2	256	5.121360614334	340.82673825324
2	261	5.221360614334	340.82673825324
2	266	5.321360614334	340.82673825324
2	271	5.421360614334	340.82673825324
2	276	5.521360614334	340.82673825324
2	281	5.621360614334	340.82673825324
2	286	5.721360614334	340.82673825324
2	291	5.821360614334	340.82673825324
2	296	5.921360614334	340.82673825324
2	301	6.021360614334	340.82673825324
2	306	6.121360614334	340.82673825324
2	311	6.221360614334	340.82673825324
2	316	6.321360614334	340.82673825324
2	321	6.421360614334	340.82673825324
2	326	6.521360614334	340.82673825324
2	331	6.621360614334	340.82673825324
2	336	6.721360614334	340.82673825324
2	341	6.821360614334	340.82673825324
2	346	6.921360614334	340.82673825324
2	351	7.021360614334	340.82673825324
2	356	7.121360614334	340.82673825324
2	361	7.221360614334	340.82673825324
2	366	7.321360614334	340.82673825324
2	371	7.421360614334	340.82673825324
2	376	7.521360614334	340.82673825324
2	381	7.621360614334	340.82673825324
2	386	7.721360614334	340.82673825324
2	391	7.821360614334	340.82673825324
2	396	7.921360614334	340.82673825324
2	401	8.021360614334	340.82673825324
2	406	8.121360614334	340.82673825324
2	411	8.221360614334	340.82673825324
2	416	8.321360614334	340.82673825324
2	421	8.421360614334	340.82673825324
2	426	8.521360614334	340.82673825324
2	431	8.621360614334	340.82673825324
2	436	8.721360614334	340.82673825324
2	441	8.821360614334	340.82673825324
2	446	8.921360614334	340.82673825324
2	451	9.021360614334	340.82673825324
3	0	0	241.10534815118
3	2	0.1	239.06739421446
3	7	0.2	237.02944027774
3	12	0.3	234.99148634103
3	17	0.4	232.95353240431
3	22	0.5	230.9155784676
3	27	0.6	228.87762453088
3	32	0.7	226.83967059416
3	37	0.8	224.80171665745
3	42	0.9	222.76376272073
3	47	1	220.72580878402
3	52	1.1	218.6878548473
3	57	1.2	216.64990091058
3	62	1.3	214.61194697387
3	67	1.4	212.57399303715
3	72	1.5	210.53603910043
3	77	1.6	208.49808516372
3	82	1.7	206.460131227
3	87	1.8	204.42217729029
3	92	1.9	202.38422335357
3	97	2	200.34626941685
3	102	2.1	198.30831548014
3	107	2.2	196.27036154342
3	112	2.3	194.23240760671
3	117	2.4	192.19445366999
3	122	2.5	190.15649973327
3	127	2.6	188.11854579656
3	132	2.7	186.08059185984
3	137	2.8	184.04263792312
3	142	2.9	182.00468398641
3	147	3	179.96673004969
3	152	3.1	177.92877611298
3	157	3.2	175.89082217626
3	162	3.3	173.85286823954
3	167	3.4	171.81491430283
3	172	3.5	169.77696036611
3	177	3.6	167.73900642939
3	182	3.7	165.70105249268
3	187	3.8	163.66309855596
3	192	3.9	161.62514461925
3	197	4	159.58719068253
3	202	4.1	157.54923674581
3	206	4.121360614334	157.11391726509
3	211	4.221360614334	157.11391726509
3	216	4.321360614334	157.11391726509
3	221	4.421360614334	157.11391726509
3	226	4.521360614334	157.11391726509
3	231	4.621360614334	157.11391726509
3	236	4.721360614334	157.11391726509
3	241	4.821360614334	157.11391726509
3	246	4.921360614334	157.11391726509
3	251	5.021360614334	157.11391726509
3	256	5.121360614334	157.11391726509
3	261	5.221360614334	157.11391726509
3	266	5.321360614334	157.11391726509
3	271	5.421360614334	157.11391726509
3	276	5.521360614334	157.11391726509
3	281	5.621360614334	157.11391726509
3	286	5.721360614334	157.11391726509
3	291	5.821360614334	157.11391726509
3	296	5.921360614334	157.11391726509
3	301	6.021360614334	157.11391726509
3	306	6.121360614334	157.11391726509
3	311	6.221360614334	157.11391726509
3	316	6.321360614334	157.11391726509
3	321	6.421360614334	157.11391726509
3	326	6.521360614334	157.11391726509
3	331	6.621360614334	157.11391726509
3	336	6.721360614334	157.11391726509
3	341	6.821360614334	157.11391726509
3	346	6.921360614334	157.11391726509
3	351	7.021360614334	157.11391726509
3	356	7.121360614334	157.11391726509
3	361	7.221360614334	157.11391726509
3	366	7.321360614334	157.11391726509
3	371	7.421360614334	157.11391726509
3	376	7.521360614334	157.11391726509
3	381	7.621360614334	157.11391726509
3	386	7.721360614334	157.11391726509
3	391	7.821360614334	157.11391726509
3	396	7.921360614334	157.11391726509
3	401	8.021360614334	157.11391726509
3	406	8.121360614334	157.11391726509
3	411	8.221360614334	157.11391726509
3	416	8.321360614334	157.11391726509
3	421	8.421360614334	157.11391726509
3	426	8.521360614334	157.11391726509
3	431	8.621360614334	157.11391726509
3	436	8.721360614334	157.11391726509
3	441	8.821360614334	157.11391726509
3	446	8.921360614334	157.11391726509
3	451	9.021360614334	157.11391726509
4	0	0	326.92990642972
4	3	0.1	323.72474021756
4	8	0.2	320.5195740054
4	13	0.3	317.31440779324
4	18	0.4	314.10924158108
4	23	0.5	310.90407536892
4	28	0.6	307.69890915676
4	33	0.7	304.4937429446
4	38	0.8	301.28857673244
4	43	0.9	298.08341052028
4	48	1	294.87824430812
4	53	1.1	291.67307809596
4	58	1.2	288.4679118838
4	63	1.3	285.26274567164
4	68	1.4	282.05757945948
4	73	1.5	278.85241324732
4	78	1.6	275.64724703516
4	83	1.7	272.442080823
4	88	1.8	269.23691461084
4	93	1.9	266.03174839868
4	98	2	262.82658218652
4	103	2.1	259.62141597436
4	108	2.2	256.4162497622
4	113	2.3	253.21108355004
4	118	2.4	250.00591733788
4	123	2.5	246.80075112572
4	128	2.6	243.59558491356
4	133	2.7	240.3904187014
4	138	2.8	237.18525248924
4	143	2.9	233.98008627708
4	148	3	230.77492006492
4	153	3.1	227.56975385276
4	158	3.2	224.3645876406
4	163	3.3	221.15942142844
4	168	3.4	217.95425521628
4	173	3.5	214.74908900412
4	178	3.6	211.54392279196
4	183	3.7	208.3387565798
4	188	3.8	205.13359036764
4	193	3.9	201.92842415548
4	198	4	198.72325794332
4	203	4.1	195.51809173116
4	208	4.2	192.312925519
4	213	4.3	189.10775930684
4	218	4.4	185.90259309468
4	223	4.5	182.69742688252
4	228	4.6	179.49226067036
4	234	4.7	176.2870944582
4	239	4.8	173.08192824604
4	244	4.9	169.87676203388
4	249	5	166.67159582172
4	254	5.1	163.46642960956
4	259	5.2	160.2612633974
4	264	5.3	157.05609718524
4	269	5.4	153.85093097308
4	274	5.5	150.64576476092
4	279	5.6	147.44059854876
4	284	5.7	144.2354323366
4	289	5.8	141.03026612444
4	294	5.9	137.82509991228
4	299	6	134.61993370012
4	304	6.1	131.41476748796
4	309	6.2	128.2096012758
4	314	6.3	125.00443506364
4	319	6.4	121.79926885148
4	324	6.5	118.59410263931
4	329	6.6	115.38893642715
4	334	6.7	112.18377021499
4	339	6.8	108.97860400283
4	344	6.9	105.77343779067
4	349	7	102.56827157851
4	354	7.1	99.363105366354
4	359	7.2	96.157939154194
4	364	7.3	92.952772942034
4	369	7.4	89.747606729874
4	374	7.5	86.542440517714
4	379	7.6	83.337274305554
4	384	7.7	80.132108093394
4	390	7.8	76.926941881234
4	395	7.9	73.721775669073
4	400	8	70.516609456913
4	405	8.1	67.311443244753
4	410	8.2	64.106277032593
4	415	8.3	60.901110820433
4	420	8.4	57.695944608273
4	425	8.5	54.490778396113
4	430	8.6	51.285612183953
4	435	8.7	48.080445971793
4	440	8.8	44.875279759632
4	443	8.870312875649	42.621635226533
4	449	8.970312875649	42.621635226533
5	0	0	338.90069490299
5	3	0.1	336.6015400354
5	8	0.2	334.30238516781
5	13	0.3	332.00323030023
5	18	0.4	329.70407543264
5	23	0.5	327.40492056505
5	28	0.6	325.10576569746
5	33	0.7	322.80661082988
5	38	0.8	320.50745596229
5	43	0.9	318.2083010947
5	48	1	315.90914622712
5	53	1.1	313.60999135953
5	58	1.2	311.31083649194
5	63	1.3	309.01168162435
5	68	1.4	306.71252675677
5	73	1.5	304.41337188918
5	78	1.6	302.11421702159
5	83	1.7	299.81506215401
5	88	1.8	297.51590728642
5	93	1.9	295.21675241883
5	98	2	292.91759755125
5	103	2.1	290.61844268366
5	108	2.2	288.31928781607
5	113	2.3	286.02013294848
5	118	2.4	283.7209780809
5	123	2.5	281.42182321331
5	128	2.6	279.12266834572
5	133	2.7	276.82351347814
5	138	2.8	274.52435861055
5	143	2.9	272.22520374296
5	148	3	269.92604887537
5	153	3.1	267.62689400779
5	158	3.2	265.3277391402
5	163	3.3	263.02858427261
5	168	3.4	260.72942940503
5	173	3.5	258.43027453744
5	178	3.6	256.13111966985
5	183	3.7	253.83196480227
5	188	3.8	251.53280993468
5	193	3.9	249.23365506709
5	198	4	246.9345001995
5	203	4.1	244.63534533192
5	208	4.2	242.33619046433
5	213	4.3	240.03703559674
5	218	4.4	237.73788072916
5	223	4.5	235.43872586157
5	228	4.6	233.13957099398
5	234	4.7	230.84041612639
5	239	4.8	228.54126125881
5	244	4.9	226.24210639122
5	249	5	223.94295152363
5	254	5.1	221.64379665605
5	259	5.2	219.34464178846
5	264	5.3	217.04548692087
5	269	5.4	214.74633205329
5	274	5.5	212.4471771857
5	279	5.6	210.14802231811
5	284	5.7	207.84886745052
5	289	5.8	205.54971258294
5	294	5.9	203.25055771535
5	299	6	200.95140284776
5	304	6.1	198.65224798018
5	309	6.2	196.35309311259
5	314	6.3	194.053938245
5	319	6.4	191.75478337741
5	324	6.5	189.45562850983
5	329	6.6	187.15647364224
5	334	6.7	184.85731877465
5	339	6.8	182.55816390707
5	344	6.9	180.25900903948
5	349	7	177.95985417189
5	354	7.1	175.6606993043
5	359	7.2	173.36154443672
5	364	7.3	171.06238956913
5	369	7.4	168.76323470154
5	374	7.5	166.46407983396
5	379	7.6	164.16492496637
5	384	7.7	161.86577009878
5	390	7.8	159.5666152312
5	395	7.9	157.26746036361
5	400	8	154.96830549602
5	405	8.1	152.66915062843
5	410	8.2	150.36999576085
5	415	8.3	148.07084089326
5	420	8.4	145.77168602567
5	425	8.5	143.47253115809
5	430	8.6	141.1733762905
5	435	8.7	138.87422142291
5	440	8.8	136.57506655532
5	443	8.870312875649	134.9584646523
5	449	8.970312875649	134.9584646523
6	0	0	374.13821783848
6	4	0.1	369.48099687913
6	9	0.2	364.82377591978
6	14	0.3	360.16655496044
6	19	0.4	355.50933400109
6	24	0.5	350.85211304174
6	29	0.6	346.19489208239
6	34	0.7	341.53767112304
6	39	0.8	336.8804501637
6	44	0.9	332.22322920435
6	49	1	327.566008245
6	54	1.1	322.90878728565
6	59	1.2	318.2515663263
6	64	1.3	313.59434536696
6	69	1.4	308.93712440761
6	74	1.5	304.27990344826
6	79	1.6	299.62268248891
6	84	1.7	294.96546152956
6	89	1.8	290.30824057021
6	94	1.9	285.65101961087
6	99	2	280.99379865152
6	104	2.1	276.33657769217
6	109	2.2	271.67935673282
6	114	2.3	267.02213577347
6	119	2.4	262.36491481413
6	124	2.5	257.70769385478
6	129	2.6	253.05047289543
6	134	2.7	248.39325193608
6	139	2.8	243.73603097673
6	144	2.9	239.07881001739
6	149	3	234.42158905804
6	154	3.1	229.76436809869
6	159	3.2	225.10714713934
6	164	3.3	220.44992617999
6	169	3.4	215.79270522064
6	174	3.5	211.1354842613
6	179	3.6	206.47826330195
6	184	3.7	201.8210423426
6	189	3.8	197.16382138325
6	194	3.9	192.5066004239
6	199	4	187.84937946456
6	204	4.1	183.19215850521
6	209	4.2	178.53493754586
6	214	4.3	173.87771658651
6	219	4.4	169.22049562716
6	224	4.5	164.56327466781
6	229	4.6	159.90605370847
6	235	4.7	155.24883274912
6	240	4.8	150.59161178977
6	245	4.9	145.93439083042
6	250	5	141.27716987107
6	255	5.1	136.61994891173
6	260	5.2	131.96272795238
6	265	5.3	127.30550699303
6	270	5.4	122.64828603368
6	275	5.5	117.99106507433
6	280	5.6	113.33384411499
6	285	5.7	108.67662315564
6	290	5.8	104.01940219629
6	295	5.9	99.362181236941
6	300	6	94.704960277593
6	305	6.1	90.047739318245
6	310	6.2	85.390518358897
6	315	6.3	80.733297399548
6	320	6.4	76.0760764402
6	325	6.5	71.418855480852
6	330	6.6	66.761634521504
6	335	6.7	62.104413562156
6	340	6.8	57.447192602808
6	345	6.9	52.78997164346
6	350	7	48.132750684111
6	355	7.1	43.475529724763
6	360	7.2	38.818308765415
6	365	7.3	34.161087806067
6	370	7.4	29.503866846719
6	375	7.5	24.846645887371
6	380	7.6	20.189424928023
6	385	7.7	15.532203968674
6	388	7.773029914751	12.131039472297
6	393	7.873029914751	12.131039472297
6	398	7.973029914751	12.131039472297
6	403	8.073029914751	12.131039472297
6	408	8.173029914751	12.131039472297
6	413	8.273029914751	12.131039472297
6	418	8.373029914751	12.131039472297
6	423	8.473029914751	12.131039472297
6	428	8.573029914751	12.131039472297
6	433	8.673029914751	12.131039472297
6	438	8.773029914751	12.131039472297
6	444	8.873029914751	12.131039472297
6	450	8.973029914751	12.131039472297
7	0	0	258.35764603689
7	4	0.1	256.92884629844
7	9	0.2	255.50004655998
7	14	0.3	254.07124682153
7	19	0.4	252.64244708307
7	24	0.5	251.21364734462
7	29	0.6	249.78484760617
7	34	0.7	248.35604786771
7	39	0.8	246.92724812926
7	44	0.9	245.4984483908
7	49	1	244.06964865235
7	54	1.1	242.64084891389
7	59	1.2	241.21204917544
7	64	1.3	239.78324943698
7	69	1.4	238.35444969853
7	74	1.5	236.92564996007
7	79	1.6	235.49685022162
7	84	1.7	234.06805048317
7	89	1.8	232.63925074471
7	94	1.9	231.21045100626
7	99	2	229.7816512678
7	104	2.1	228.35285152935
7	109	2.2	226.92405179089
7	114	2.3	225.49525205244
7	119	2.4	224.06645231398
7	124	2.5	222.63765257553
7	129	2.6	221.20885283707
7	134	2.7	219.78005309862
7	139	2.8	218.35125336016
7	144	2.9	216.92245362171
7	149	3	215.49365388326
7	154	3.1	214.0648541448
7	159	3.2	212.63605440635
7	164	3.3	211.20725466789
7	169	3.4	209.77845492944
7	174	3.5	208.34965519098
7	179	3.6	206.92085545253
7	184	3.7	205.49205571407
7	189	3.8	204.06325597562
7	194	3.9	202.63445623716
7	199	4	201.20565649871
7	204	4.1	199.77685676026
7	209	4.2	198.3480570218
7	214	4.3	196.91925728335
7	219	4.4	195.49045754489
7	224	4.5	194.06165780644
7	229	4.6	192.63285806798
7	235	4.7	191.20405832953
7	240	4.8	189.77525859107
7	245	4.9	188.34645885262
7	250	5	186.91765911416
7	255	5.1	185.48885937571
7	260	5.2	184.06005963725
7	265	5.3	182.6312598988
7	270	5.4	181.20246016035
7	275	5.5	179.77366042189
7	280	5.6	178.34486068344
7	285	5.7	176.91606094498
7	290	5.8	175.48726120653
7	295	5.9	174.05846146807
7	300	6	172.62966172962
7	305	6.1	171.20086199116
7	310	6.2	169.77206225271
7	315	6.3	168.34326251425
7	320	6.4	166.9144627758
7	325	6.5	165.48566303735
7	330	6.6	164.05686329889
7	335	6.7	162.62806356044
7	340	6.8	161.19926382198
7	345	6.9	159.77046408353
7	350	7	158.34166434507
7	355	7.1	156.91286460662
7	360	7.2	155.48406486816
7	365	7.3	154.05526512971
7	370	7.4	152.62646539125
7	375	7.5	151.1976656528
7	380	7.6	149.76886591434
7	385	7.7	148.34006617589
7	388	7.773029914751	147.29661494493
7	393	7.873029914751	147.29661494493
7	398	7.973029914751	147.29661494493
7	403	8.073029914751	147.29661494493
7	408	8.173029914751	147.29661494493
7	413	8.273029914751	147.29661494493
7	418	8.373029914751	147.29661494493
7	423	8.473029914751	147.29661494493
7	428	8.573029914751	147.29661494493
7	433	8.673029914751	147.29661494493
7	438	8.773029914751	147.29661494493
7	444	8.873029914751	147.29661494493
7	450	8.973029914751	147.29661494493
8	0	0	262.55232598633
8	5	0.1	266.95872252708
8	10	0.2	271.36511906784
8	15	0.3	275.7715156086
8	20	0.4	280.17791214936
8	25	0.5	284.58430869012
8	30	0.6	288.99070523088
8	35	0.7	293.39710177164
8	40	0.8	297.8034983124
8	45	0.9	302.20989485315
8	50	1	306.61629139391
8	55	1.1	311.02268793467
8	60	1.2	315.42908447543
8	65	1.3	319.83548101619
8	70	1.4	324.24187755695
8	75	1.5	328.64827409771
8	80	1.6	333.05467063847
8	85	1.7	337.46106717922
8	90	1.8	341.86746371998
8	95	1.9	346.27386026074
8	100	2	350.6802568015
8	105	2.1	355.08665334226
8	110	2.2	359.49304988302
8	115	2.3	363.89944642378
8	120	2.4	368.30584296454
8	125	2.5	372.71223950529
8	130	2.6	377.11863604605
8	135	2.7	381.52503258681
8	140	2.8	385.93142912757
8	145	2.9	390.33782566833
8	150	3	394.74422220909
8	155	3.1	399.15061874985
8	160	3.2	403.55701529061
8	165	3.3	407.96341183136
8	170	3.4	412.36980837212
8	175	3.5	416.77620491288
8	180	3.6	421.18260145364
8	185	3.7	425.5889979944
8	190	3.8	429.99539453516
8	195	3.9	434.40179107592
8	200	4	438.80818761668
8	205	4.1	443.21458415743
8	210	4.2	447.62098069819
8	215	4.3	452.02737723895
8	220	4.4	456.43377377971
8	225	4.5	460.84017032047
8	230	4.6	465.24656686123
8	232	4.637388538616	466.89405413345
8	237	4.737388538616	466.89405413345
8	242	4.837388538616	466.89405413345
8	247	4.937388538616	466.89405413345
8	252	5.037388538616	466.89405413345
8	257	5.137388538616	466.89405413345
8	262	5.237388538616	466.89405413345
8	267	5.337388538616	466.89405413345
8	272	5.437388538616	466.89405413345
8	277	5.537388538616	466.89405413345
8	282	5.637388538616	466.89405413345
8	287	5.737388538616	466.89405413345
8	292	5.837388538616	466.89405413345
8	297	5.937388538616	466.89405413345
8	302	6.037388538616	466.89405413345
8	307	6.137388538616	466.89405413345
8	312	6.237388538616	466.89405413345
8	317	6.337388538616	466.89405413345
8	322	6.437388538616	466.89405413345
8	327	6.537388538616	466.89405413345
8	332	6.637388538616	466.89405413345
8	337	6.737388538616	466.89405413345
8	342	6.837388538616	466.89405413345
8	347	6.937388538616	466.89405413345
8	352	7.037388538616	466.89405413345
8	357	7.137388538616	466.89405413345
8	362	7.237388538616	466.89405413345
8	367	7.337388538616	466.89405413345
8	372	7.437388538616	466.89405413345
8	377	7.537388538616	466.89405413345
8	382	7.637388538616	466.89405413345
8	387	7.737388538616	466.89405413345
8	392	7.837388538616	466.89405413345
8	397	7.937388538616	466.89405413345
8	402	8.037388538616	466.89405413345
8	407	8.137388538616	466.89405413345
8	412	8.237388538616	466.89405413345
8	417	8.337388538616	466.89405413345
8	422	8.437388538616	466.89405413345
8	427	8.537388538616	466.89405413345
8	432	8.637388538616	466.89405413345
8	437	8.737388538616	466.89405413345
8	442	8.837388538616	466.89405413345
8	447	8.937388538616	466.89405413345
8	452	9.037388538616	466.89405413345
9	0	0	119.01384210214
9	5	0.1	117.65804604129
9	10	0.2	116.30224998044
9	15	0.3	114.94645391959
9	20	0.4	113.59065785873
9	25	0.5	112.23486179788
9	30	0.6	110.87906573703
9	35	0.7	109.52326967618
9	40	0.8	108.16747361533
9	45	0.9	106.81167755448
9	50	1	105.45588149362
9	55	1.1	104.10008543277
9	60	1.2	102.74428937192
9	65	1.3	101.38849331107
9	70	1.4	100.03269725022
9	75	1.5	98.676901189367
9	80	1.6	97.321105128516
9	85	1.7	95.965309067664
9	90	1.8	94.609513006813
9	95	1.9	93.253716945961
9	100	2	91.89792088511
9	105	2.1	90.542124824258
9	110	2.2	89.186328763406
9	115	2.3	87.830532702555
9	120	2.4	86.474736641703
9	125	2.5	85.118940580852
9	130	2.6	83.76314452
9	135	2.7	82.407348459149
9	140	2.8	81.051552398297
9	145	2.9	79.695756337446
9	150	3	78.339960276594
9	155	3.1	76.984164215743
9	160	3.2	75.628368154891
9	165	3.3	74.27257209404
9	170	3.4	72.916776033188
9	175	3.5	71.560979972337
9	180	3.6	70.205183911485
9	185	3.7	68.849387850634
9	190	3.8	67.493591789782
9	195	3.9	66.13779572893
9	200	4	64.781999668079
9	205	4.1	63.426203607227
9	210	4.2	62.070407546376
9	215	4.3	60.714611485524
9	220	4.4	59.358815424673
9	225	4.5	58.003019363821
9	230	4.6	56.64722330297
9	232	4.637388538616	56.140310969204
9	237	4.737388538616	56.140310969204
9	242	4.837388538616	56.140310969204
9	247	4.937388538616	56.140310969204
9	252	5.037388538616	56.140310969204
9	257	5.137388538616	56.140310969204
9	262	5.237388538616	56.140310969204
9	267	5.337388538616	56.140310969204
9	272	5.437388538616	56.140310969204
9	277	5.537388538616	56.140310969204
9	282	5.637388538616	56.140310969204
9	287	5.737388538616	56.140310969204
9	292	5.837388538616	56.140310969204
9	297	5.937388538616	56.140310969204
9	302	6.037388538616	56.140310969204
9	307	6.137388538616	56.140310969204
9	312	6.237388538616	56.140310969204
9	317	6.337388538616	56.140310969204
9	322	6.437388538616	56.140310969204
9	327	6.537388538616	56.140310969204
9	332	6.637388538616	56.140310969204
9	337	6.737388538616	56.140310969204
9	342	6.837388538616	56.140310969204
9	347	6.937388538616	56.140310969204
9	352	7.037388538616	56.140310969204
9	357	7.137388538616	56.140310969204
9	362	7.237388538616	56.140310969204
9	367	7.337388538616	56.140310969204
9	372	7.437388538616	56.140310969204
9	377	7.537388538616	56.140310969204
9	382	7.637388538616	56.140310969204
9	387	7.737388538616	56.140310969204
9	392	7.837388538616	56.140310969204
9	397	7.937388538616	56.140310969204
9	402	8.037388538616	56.140310969204
9	407	8.137388538616	56.140310969204
9	412	8.237388538616	56.140310969204
9	417	8.337388538616	56.140310969204
9	422	8.437388538616	56.140310969204
9	427	8.537388538616	56.140310969204
9	432	8.637388538616	56.140310969204
9	437	8.737388538616	56.140310969204
9	442	8.837388538616	56.140310969204
9	447	8.937388538616	56.140310969204
9	452	9.037388538616	56.140310969204

