version 2
run MultiRadio-0-20180816-15:32:08-6348
attr configname MultiRadio
attr datetime 20180816-15:32:08
attr experiment MultiRadio
attr inifile omnetpp.ini
attr iterationvars ""
attr iterationvarsf ""
attr measurement ""
attr network org
attr processid 6348
attr repetition 0
attr replication #0
attr resultdir results
attr runnumber 0
attr seedset 0
param **.numRadios 2
param **.mgmt.numChannels 3
param **.mobileHost[0].wlan[0].radio.channelNumber 0
param **.mobileHost[0].wlan[1].radio.channelNumber 1
param **.mobileHost[1].wlan[0].radio.channelNumber 0
param **.mobileHost[1].wlan[1].radio.channelNumber 1
param **.mobileHost[2].wlan[0].radio.channelNumber 0
param **.mobileHost[2].wlan[1].radio.channelNumber 2
param **.mobileHost[3].wlan[0].radio.channelNumber 1
param **.mobileHost[3].wlan[1].radio.channelNumber 2
param **.mobileHost[4].wlan[0].radio.channelNumber 0
param **.mobileHost[4].wlan[1].radio.channelNumber 1
param **.mobileHost[5].wlan[0].radio.channelNumber 1
param **.mobileHost[5].wlan[1].radio.channelNumber 2
param **.mobileHost[6].wlan[0].radio.channelNumber 1
param **.mobileHost[6].wlan[1].radio.channelNumber 2
param **.mobileHost[7].wlan[0].radio.channelNumber 0
param **.mobileHost[7].wlan[1].radio.channelNumber 2
param **.mobileHost[8].wlan[0].radio.channelNumber 0
param **.mobileHost[8].wlan[1].radio.channelNumber 1
param **.mobileHost[9].wlan[0].radio.channelNumber 0
param **.mobileHost[9].wlan[1].radio.channelNumber 2
param **.mobileHost[10].wlan[0].radio.channelNumber 0
param **.mobileHost[10].wlan[1].radio.channelNumber 1
param **.mobileHost[11].wlan[0].radio.channelNumber 0
param **.mobileHost[11].wlan[1].radio.channelNumber 1
param **.mobileHost[12].wlan[0].radio.channelNumber 1
param **.mobileHost[12].wlan[1].radio.channelNumber 2
param **.mobileHost[13].wlan[0].radio.channelNumber 0
param **.mobileHost[13].wlan[1].radio.channelNumber 2
param **.mobileHost[14].wlan[0].radio.channelNumber 1
param **.mobileHost[14].wlan[1].radio.channelNumber 2
param **.mobileHost[15].wlan[0].radio.channelNumber 0
param **.mobileHost[15].wlan[1].radio.channelNumber 2
param *.numHosts 16
param **.mobileHost[*].mobilityType "\"StaticGridMobility\""
param **.mobileHost[*].mobility.numHosts 16
param **.mobileHost[*].mobility.marginX 10m
param **.mobileHost[*].mobility.marginY 10m
param **.wlan[*].bitrate 54Mbps
param **.mac.maxQueueSize 15
param *.radiomedium.typename "\"ApskScalarRadioMedium\""
param *.radioMedium.backgroundNoise.power -90dBm
param *.radioMedium.mediumLimitCache.carrierFrequency 2GHz
param **.wlan[0].radio.typename "\"ApskScalarRadio\""
param **.wlan[0].radio.carrierFrequency 2.412GHz
param **.wlan[0].radio.bandwidth 2MHz
param **.wlan[0].radio.transmitter.power 1mW
param **.wlan[0].radio.transmitter.preambleDuration 10us
param **.wlan[0].radio.transmitter.headerLength 0b
param **.wlan[0].radio.receiver.sensitivity -85dBm
param **.wlan[0].radio.receiver.energyDetection -85dBm
param **.wlan[0].radio.receiver.snirThreshold 4dB
param **.wlan[0].radio.displayCommunicationRange true
param *.visualizer.mediumVisualizer.displaySignals true
param *.visualizer.physicalLinkVisualizer.displayLinks true
param **.mobileHost[0].numPingApps 1
param **.mobileHost[0].pingApp[0].destAddr "\"10.0.0.31\""
param **.mobileHost[0].pingApp[0].startTime 0s
param **.pingApp[*].printPing true
param **.mobileHost[*].routingProtocol "\"OLSR_ETX\""
param **.networkConfigurator.config "xml(\"<config><interface hosts='*' address='10.0.0.x' netmask='255.255.255.0'/></config>\")"
param **.constraintAreaMinX 0m
param **.constraintAreaMinY 0m
param **.constraintAreaMaxX 800m
param **.constraintAreaMaxY 800m
param **.radioMedium.pMax 2mW

scalar org.mobileHost[0].mobility x 107.5
scalar org.mobileHost[0].mobility y 107.5
scalar org.mobileHost[0].mobility z 0
scalar org.mobileHost[1].mobility x 302.5
scalar org.mobileHost[1].mobility y 107.5
scalar org.mobileHost[1].mobility z 0
scalar org.mobileHost[2].mobility x 497.5
scalar org.mobileHost[2].mobility y 107.5
scalar org.mobileHost[2].mobility z 0
scalar org.mobileHost[3].mobility x 692.5
scalar org.mobileHost[3].mobility y 107.5
scalar org.mobileHost[3].mobility z 0
scalar org.mobileHost[4].mobility x 107.5
scalar org.mobileHost[4].mobility y 302.5
scalar org.mobileHost[4].mobility z 0
scalar org.mobileHost[5].mobility x 302.5
scalar org.mobileHost[5].mobility y 302.5
scalar org.mobileHost[5].mobility z 0
scalar org.mobileHost[6].mobility x 497.5
scalar org.mobileHost[6].mobility y 302.5
scalar org.mobileHost[6].mobility z 0
scalar org.mobileHost[7].mobility x 692.5
scalar org.mobileHost[7].mobility y 302.5
scalar org.mobileHost[7].mobility z 0
scalar org.mobileHost[8].mobility x 107.5
scalar org.mobileHost[8].mobility y 497.5
scalar org.mobileHost[8].mobility z 0
scalar org.mobileHost[9].mobility x 302.5
scalar org.mobileHost[9].mobility y 497.5
scalar org.mobileHost[9].mobility z 0
scalar org.mobileHost[10].mobility x 497.5
scalar org.mobileHost[10].mobility y 497.5
scalar org.mobileHost[10].mobility z 0
scalar org.mobileHost[11].mobility x 692.5
scalar org.mobileHost[11].mobility y 497.5
scalar org.mobileHost[11].mobility z 0
scalar org.mobileHost[12].mobility x 107.5
scalar org.mobileHost[12].mobility y 692.5
scalar org.mobileHost[12].mobility z 0
scalar org.mobileHost[13].mobility x 302.5
scalar org.mobileHost[13].mobility y 692.5
scalar org.mobileHost[13].mobility z 0
scalar org.mobileHost[14].mobility x 497.5
scalar org.mobileHost[14].mobility y 692.5
scalar org.mobileHost[14].mobility z 0
scalar org.mobileHost[15].mobility x 692.5
scalar org.mobileHost[15].mobility y 692.5
scalar org.mobileHost[15].mobility z 0
scalar org.radioMedium.propagation "Arrival computation count" 124
scalar org.radioMedium "transmission count" 4
scalar org.radioMedium "radio frame send count" 124
scalar org.radioMedium "reception computation count" 100
scalar org.radioMedium "interference computation count" 315
scalar org.radioMedium "reception decision computation count" 18
scalar org.radioMedium "listening decision computation count" 198
scalar org.radioMedium "reception cache hit" 82.486865148862
attr unit %
scalar org.radioMedium "interference cache hit" 66.666666666667
attr unit %
scalar org.radioMedium "noise cache hit" 0
attr unit %
scalar org.radioMedium "snir cache hit" 50
attr unit %
scalar org.radioMedium "reception decision cache hit" 50
attr unit %
scalar org.radioMedium "reception result cache hit" 0
attr unit %
scalar org.mobileHost[0].networkLayer.arp sentReply:count 0
attr title "ARP replies sent, count"
scalar org.mobileHost[0].networkLayer.arp sentReq:count 0
attr title "ARP request sent, count"
scalar org.mobileHost[0].networkLayer.arp initiatedARPResolution:count 0
attr title "ARP initiated resolutions, count"
scalar org.mobileHost[0].networkLayer.arp failedARPResolution:count 0
attr title "ARP failed resolutions, count"
scalar org.mobileHost[0].networkLayer.arp completedARPResolution:count 0
attr title "ARP completed resolutions, count"
scalar org.mobileHost[0].lo0.lo droppedPkBitError:count 0
attr interpolationmode none
attr source dropPkBitError
attr title "packets dropped/bit error, count"
scalar org.mobileHost[0].lo0.lo droppedPkBitError:sum(packetBytes) 0
attr interpolationmode none
attr source dropPkBitError
attr title "packets dropped/bit error, sum(packetBytes)"
scalar org.mobileHost[0].lo0.lo rcvdPkFromHL:count 0
attr interpolationmode none
attr source packetReceivedFromUpper
attr title "packets received from higher layer, count"
scalar org.mobileHost[0].lo0.lo rcvdPkFromHL:sum(packetBytes) 0
attr interpolationmode none
attr source packetReceivedFromUpper
attr title "packets received from higher layer, sum(packetBytes)"
scalar org.mobileHost[0].lo0.lo passedUpPk:count 0
attr interpolationmode none
attr source packetSentToUpper
attr title "packets passed to higher layer, count"
scalar org.mobileHost[0].lo0.lo passedUpPk:sum(packetBytes) 0
attr interpolationmode none
attr source packetSentToUpper
attr title "packets passed to higher layer, sum(packetBytes)"
scalar org.mobileHost[0].wlan[0].mac.statistics numReceivedUnicast 0
scalar org.mobileHost[0].wlan[0].mac.statistics numReceivedBroadcast 0
scalar org.mobileHost[0].wlan[0].mac.statistics numReceivedMulticast 0
scalar org.mobileHost[0].wlan[0].mac.statistics numReceivedNotForUs 0
scalar org.mobileHost[0].wlan[0].mac.statistics numReceivedErroneous 0
scalar org.mobileHost[0].wlan[0].mac rcvdPkFromHL:count 0
attr interpolationmode none
attr source packetReceivedFromUpper
attr title "packets received from higher layer, count"
scalar org.mobileHost[0].wlan[0].mac rcvdPkFromHL:sum(packetBytes) 0
attr interpolationmode none
attr source packetReceivedFromUpper
attr title "packets received from higher layer, sum(packetBytes)"
scalar org.mobileHost[0].wlan[0].mac passedUpPk:count 0
attr interpolationmode none
attr source packetSentToUpper
attr title "packets passed to higher layer, count"
scalar org.mobileHost[0].wlan[0].mac passedUpPk:sum(packetBytes) 0
attr interpolationmode none
attr source packetSentToUpper
attr title "packets passed to higher layer, sum(packetBytes)"
scalar org.mobileHost[0].wlan[0].mac rcvdPkFromLL:count 0
attr interpolationmode none
attr source packetReceivedFromLower
attr title "packets received from lower layer, count"
scalar org.mobileHost[0].wlan[0].mac rcvdPkFromLL:sum(packetBytes) 0
attr interpolationmode none
attr source packetReceivedFromLower
attr title "packets received from lower layer, sum(packetBytes)"
scalar org.mobileHost[0].wlan[0].mac sentDownPk:count 0
attr interpolationmode none
attr source packetSentToLower
attr title "packets sent to lower layer, count"
scalar org.mobileHost[0].wlan[0].mac sentDownPk:sum(packetBytes) 0
attr interpolationmode none
attr source packetSentToLower
attr title "packets sent to lower layer, sum(packetBytes)"
statistic org.mobileHost[0].wlan[0].radio symbolErrorRate:histogram
field count 0
field mean nan
field stddev nan
field min nan
field max nan
field sum 0
field sqrsum 0
attr source symbolErrorRate
attr title "Symbol error rate, histogram"
bin	-inf	0
bin	0	0
bin	1	0
statistic org.mobileHost[0].wlan[0].radio bitErrorRate:histogram
field count 0
field mean nan
field stddev nan
field min nan
field max nan
field sum 0
field sqrsum 0
attr source bitErrorRate
attr title "Bit error rate, histogram"
bin	-inf	0
bin	0	0
bin	1	0
statistic org.mobileHost[0].wlan[0].radio packetErrorRate:histogram
field count 0
field mean nan
field stddev nan
field min nan
field max nan
field sum 0
field sqrsum 0
attr source packetErrorRate
attr title "Packet error rate, histogram"
bin	-inf	0
bin	0	0
bin	1	0
statistic org.mobileHost[0].wlan[0].radio minSNIR:histogram
field count 0
field mean nan
field stddev nan
field min nan
field max nan
field sum 0
field sqrsum 0
attr source minSNIR
attr title "Min SNIR, histogram"
bin	-inf	0
bin	0	0
bin	1	0
scalar org.mobileHost[0].wlan[0].radio transmissionState:count 0
attr interpolationmode sample-hold
attr source transmissionStateChanged
attr title "Radio transmission state, count"
scalar org.mobileHost[0].wlan[0].radio receptionState:count 1
attr interpolationmode sample-hold
attr source receptionStateChanged
attr title "Radio reception state, count"
scalar org.mobileHost[0].wlan[0].radio radioMode:count 2
attr interpolationmode sample-hold
attr source radioModeChanged
attr title "Radio mode, count"
statistic org.mobileHost[0].wlan[0].radio radioChannel:histogram
field count 1
field mean 0
field stddev nan
field min 0
field max 0
field sum 0
field sqrsum 0
attr interpolationmode sample-hold
attr source radioChannelChanged
attr title "Radio channel, histogram"
bin	-inf	0
bin	-0.5	0
bin	-0.48	0
bin	-0.46	0
bin	-0.44	0
bin	-0.42	0
bin	-0.4	0
bin	-0.38	0
bin	-0.36	0
bin	-0.34	0
bin	-0.32	0
bin	-0.3	0
bin	-0.28	0
bin	-0.26	0
bin	-0.24	0
bin	-0.22	0
bin	-0.2	0
bin	-0.18	0
bin	-0.16	0
bin	-0.14	0
bin	-0.12	0
bin	-0.1	0
bin	-0.08	0
bin	-0.06	0
bin	-0.04	0
bin	-0.02	0
bin	0	1
bin	0.02	0
bin	0.04	0
bin	0.06	0
bin	0.08	0
bin	0.1	0
bin	0.12	0
bin	0.14	0
bin	0.16	0
bin	0.18	0
bin	0.2	0
bin	0.22	0
bin	0.24	0
bin	0.26	0
bin	0.28	0
bin	0.3	0
bin	0.32	0
bin	0.34	0
bin	0.36	0
bin	0.38	0
bin	0.4	0
bin	0.42	0
bin	0.44	0
bin	0.46	0
bin	0.48	0
bin	0.5	0
scalar org.mobileHost[0].wlan[1].mac.statistics numReceivedUnicast 0
scalar org.mobileHost[0].wlan[1].mac.statistics numReceivedBroadcast 0
scalar org.mobileHost[0].wlan[1].mac.statistics numReceivedMulticast 0
scalar org.mobileHost[0].wlan[1].mac.statistics numReceivedNotForUs 0
scalar org.mobileHost[0].wlan[1].mac.statistics numReceivedErroneous 0
scalar org.mobileHost[0].wlan[1].mac rcvdPkFromHL:count 0
attr interpolationmode none
attr source packetReceivedFromUpper
attr title "packets received from higher layer, count"
scalar org.mobileHost[0].wlan[1].mac rcvdPkFromHL:sum(packetBytes) 0
attr interpolationmode none
attr source packetReceivedFromUpper
attr title "packets received from higher layer, sum(packetBytes)"
scalar org.mobileHost[0].wlan[1].mac passedUpPk:count 0
attr interpolationmode none
attr source packetSentToUpper
attr title "packets passed to higher layer, count"
scalar org.mobileHost[0].wlan[1].mac passedUpPk:sum(packetBytes) 0
attr interpolationmode none
attr source packetSentToUpper
attr title "packets passed to higher layer, sum(packetBytes)"
scalar org.mobileHost[0].wlan[1].mac rcvdPkFromLL:count 0
attr interpolationmode none
attr source packetReceivedFromLower
attr title "packets received from lower layer, count"
scalar org.mobileHost[0].wlan[1].mac rcvdPkFromLL:sum(packetBytes) 0
attr interpolationmode none
attr source packetReceivedFromLower
attr title "packets received from lower layer, sum(packetBytes)"
scalar org.mobileHost[0].wlan[1].mac sentDownPk:count 0
attr interpolationmode none
attr source packetSentToLower
attr title "packets sent to lower layer, count"
scalar org.mobileHost[0].wlan[1].mac sentDownPk:sum(packetBytes) 0
attr interpolationmode none
attr source packetSentToLower
attr title "packets sent to lower layer, sum(packetBytes)"
statistic org.mobileHost[0].wlan[1].radio symbolErrorRate:histogram
field count 0
field mean nan
field stddev nan
field min nan
field max nan
field sum 0
field sqrsum 0
attr source symbolErrorRate
attr title "Symbol error rate, histogram"
bin	-inf	0
bin	0	0
bin	1	0
statistic org.mobileHost[0].wlan[1].radio bitErrorRate:histogram
field count 0
field mean nan
field stddev nan
field min nan
field max nan
field sum 0
field sqrsum 0
attr source bitErrorRate
attr title "Bit error rate, histogram"
bin	-inf	0
bin	0	0
bin	1	0
statistic org.mobileHost[0].wlan[1].radio packetErrorRate:histogram
field count 0
field mean nan
field stddev nan
field min nan
field max nan
field sum 0
field sqrsum 0
attr source packetErrorRate
attr title "Packet error rate, histogram"
bin	-inf	0
bin	0	0
bin	1	0
statistic org.mobileHost[0].wlan[1].radio minSNIR:histogram
field count 0
field mean nan
field stddev nan
field min nan
field max nan
field sum 0
field sqrsum 0
attr source minSNIR
attr title "Min SNIR, histogram"
bin	-inf	0
bin	0	0
bin	1	0
scalar org.mobileHost[0].wlan[1].radio transmissionState:count 0
attr interpolationmode sample-hold
attr source transmissionStateChanged
attr title "Radio transmission state, count"
scalar org.mobileHost[0].wlan[1].radio receptionState:count 1
attr interpolationmode sample-hold
attr source receptionStateChanged
attr title "Radio reception state, count"
scalar org.mobileHost[0].wlan[1].radio radioMode:count 2
attr interpolationmode sample-hold
attr source radioModeChanged
attr title "Radio mode, count"
statistic org.mobileHost[0].wlan[1].radio radioChannel:histogram
field count 1
field mean 1
field stddev nan
field min 1
field max 1
field sum 1
field sqrsum 1
attr interpolationmode sample-hold
attr source radioChannelChanged
attr title "Radio channel, histogram"
bin	-inf	0
bin	0	0
bin	1	1
bin	2	0
scalar org.mobileHost[0].pingApp[0] "Pings sent" 3
scalar org.mobileHost[0].pingApp[0] "ping loss rate (%)" 100
scalar org.mobileHost[0].pingApp[0] "ping out-of-order rate (%)" 0
scalar org.mobileHost[0].pingApp[0] pingRxSeq:count 0
attr interpolationmode none
attr title "ping rx seq, count"
scalar org.mobileHost[0].pingApp[0] pingTxSeq:count 3
attr interpolationmode none
attr title "ping tx seq, count"
scalar org.mobileHost[0].pingApp[0] numOutOfOrderArrivals:last nan
attr interpolationmode none
attr title "ping out-of-order arrivals, last"
scalar org.mobileHost[0].pingApp[0] numLost:last nan
attr interpolationmode none
attr title "pings lost, last"
statistic org.mobileHost[0].pingApp[0] rtt:histogram
field count 0
field mean nan
field stddev nan
field min nan
field max nan
field sum 0
field sqrsum 0
attr interpolationmode none
attr title "ping round-trip time, histogram"
attr unit s
bin	-inf	0
bin	0	0
bin	1	0
scalar org.mobileHost[1].networkLayer.arp sentReply:count 0
attr title "ARP replies sent, count"
scalar org.mobileHost[1].networkLayer.arp sentReq:count 0
attr title "ARP request sent, count"
scalar org.mobileHost[1].networkLayer.arp initiatedARPResolution:count 0
attr title "ARP initiated resolutions, count"
scalar org.mobileHost[1].networkLayer.arp failedARPResolution:count 0
attr title "ARP failed resolutions, count"
scalar org.mobileHost[1].networkLayer.arp completedARPResolution:count 0
attr title "ARP completed resolutions, count"
scalar org.mobileHost[1].lo0.lo droppedPkBitError:count 0
attr interpolationmode none
attr source dropPkBitError
attr title "packets dropped/bit error, count"
scalar org.mobileHost[1].lo0.lo droppedPkBitError:sum(packetBytes) 0
attr interpolationmode none
attr source dropPkBitError
attr title "packets dropped/bit error, sum(packetBytes)"
scalar org.mobileHost[1].lo0.lo rcvdPkFromHL:count 0
attr interpolationmode none
attr source packetReceivedFromUpper
attr title "packets received from higher layer, count"
scalar org.mobileHost[1].lo0.lo rcvdPkFromHL:sum(packetBytes) 0
attr interpolationmode none
attr source packetReceivedFromUpper
attr title "packets received from higher layer, sum(packetBytes)"
scalar org.mobileHost[1].lo0.lo passedUpPk:count 0
attr interpolationmode none
attr source packetSentToUpper
attr title "packets passed to higher layer, count"
scalar org.mobileHost[1].lo0.lo passedUpPk:sum(packetBytes) 0
attr interpolationmode none
attr source packetSentToUpper
attr title "packets passed to higher layer, sum(packetBytes)"
scalar org.mobileHost[1].wlan[0].mac.statistics numReceivedUnicast 0
scalar org.mobileHost[1].wlan[0].mac.statistics numReceivedBroadcast 0
scalar org.mobileHost[1].wlan[0].mac.statistics numReceivedMulticast 0
scalar org.mobileHost[1].wlan[0].mac.statistics numReceivedNotForUs 0
scalar org.mobileHost[1].wlan[0].mac.statistics numReceivedErroneous 0
scalar org.mobileHost[1].wlan[0].mac rcvdPkFromHL:count 0
attr interpolationmode none
attr source packetReceivedFromUpper
attr title "packets received from higher layer, count"
scalar org.mobileHost[1].wlan[0].mac rcvdPkFromHL:sum(packetBytes) 0
attr interpolationmode none
attr source packetReceivedFromUpper
attr title "packets received from higher layer, sum(packetBytes)"
scalar org.mobileHost[1].wlan[0].mac passedUpPk:count 0
attr interpolationmode none
attr source packetSentToUpper
attr title "packets passed to higher layer, count"
scalar org.mobileHost[1].wlan[0].mac passedUpPk:sum(packetBytes) 0
attr interpolationmode none
attr source packetSentToUpper
attr title "packets passed to higher layer, sum(packetBytes)"
scalar org.mobileHost[1].wlan[0].mac rcvdPkFromLL:count 0
attr interpolationmode none
attr source packetReceivedFromLower
attr title "packets received from lower layer, count"
scalar org.mobileHost[1].wlan[0].mac rcvdPkFromLL:sum(packetBytes) 0
attr interpolationmode none
attr source packetReceivedFromLower
attr title "packets received from lower layer, sum(packetBytes)"
scalar org.mobileHost[1].wlan[0].mac sentDownPk:count 0
attr interpolationmode none
attr source packetSentToLower
attr title "packets sent to lower layer, count"
scalar org.mobileHost[1].wlan[0].mac sentDownPk:sum(packetBytes) 0
attr interpolationmode none
attr source packetSentToLower
attr title "packets sent to lower layer, sum(packetBytes)"
statistic org.mobileHost[1].wlan[0].radio symbolErrorRate:histogram
field count 0
field mean nan
field stddev nan
field min nan
field max nan
field sum 0
field sqrsum 0
attr source symbolErrorRate
attr title "Symbol error rate, histogram"
bin	-inf	0
bin	0	0
bin	1	0
statistic org.mobileHost[1].wlan[0].radio bitErrorRate:histogram
field count 0
field mean nan
field stddev nan
field min nan
field max nan
field sum 0
field sqrsum 0
attr source bitErrorRate
attr title "Bit error rate, histogram"
bin	-inf	0
bin	0	0
bin	1	0
statistic org.mobileHost[1].wlan[0].radio packetErrorRate:histogram
field count 0
field mean nan
field stddev nan
field min nan
field max nan
field sum 0
field sqrsum 0
attr source packetErrorRate
attr title "Packet error rate, histogram"
bin	-inf	0
bin	0	0
bin	1	0
statistic org.mobileHost[1].wlan[0].radio minSNIR:histogram
field count 0
field mean nan
field stddev nan
field min nan
field max nan
field sum 0
field sqrsum 0
attr source minSNIR
attr title "Min SNIR, histogram"
bin	-inf	0
bin	0	0
bin	1	0
scalar org.mobileHost[1].wlan[0].radio transmissionState:count 0
attr interpolationmode sample-hold
attr source transmissionStateChanged
attr title "Radio transmission state, count"
scalar org.mobileHost[1].wlan[0].radio receptionState:count 1
attr interpolationmode sample-hold
attr source receptionStateChanged
attr title "Radio reception state, count"
scalar org.mobileHost[1].wlan[0].radio radioMode:count 2
attr interpolationmode sample-hold
attr source radioModeChanged
attr title "Radio mode, count"
statistic org.mobileHost[1].wlan[0].radio radioChannel:histogram
field count 1
field mean 0
field stddev nan
field min 0
field max 0
field sum 0
field sqrsum 0
attr interpolationmode sample-hold
attr source radioChannelChanged
attr title "Radio channel, histogram"
bin	-inf	0
bin	-0.5	0
bin	-0.48	0
bin	-0.46	0
bin	-0.44	0
bin	-0.42	0
bin	-0.4	0
bin	-0.38	0
bin	-0.36	0
bin	-0.34	0
bin	-0.32	0
bin	-0.3	0
bin	-0.28	0
bin	-0.26	0
bin	-0.24	0
bin	-0.22	0
bin	-0.2	0
bin	-0.18	0
bin	-0.16	0
bin	-0.14	0
bin	-0.12	0
bin	-0.1	0
bin	-0.08	0
bin	-0.06	0
bin	-0.04	0
bin	-0.02	0
bin	0	1
bin	0.02	0
bin	0.04	0
bin	0.06	0
bin	0.08	0
bin	0.1	0
bin	0.12	0
bin	0.14	0
bin	0.16	0
bin	0.18	0
bin	0.2	0
bin	0.22	0
bin	0.24	0
bin	0.26	0
bin	0.28	0
bin	0.3	0
bin	0.32	0
bin	0.34	0
bin	0.36	0
bin	0.38	0
bin	0.4	0
bin	0.42	0
bin	0.44	0
bin	0.46	0
bin	0.48	0
bin	0.5	0
scalar org.mobileHost[1].wlan[1].mac.statistics numReceivedUnicast 0
scalar org.mobileHost[1].wlan[1].mac.statistics numReceivedBroadcast 0
scalar org.mobileHost[1].wlan[1].mac.statistics numReceivedMulticast 0
scalar org.mobileHost[1].wlan[1].mac.statistics numReceivedNotForUs 0
scalar org.mobileHost[1].wlan[1].mac.statistics numReceivedErroneous 0
scalar org.mobileHost[1].wlan[1].mac rcvdPkFromHL:count 0
attr interpolationmode none
attr source packetReceivedFromUpper
attr title "packets received from higher layer, count"
scalar org.mobileHost[1].wlan[1].mac rcvdPkFromHL:sum(packetBytes) 0
attr interpolationmode none
attr source packetReceivedFromUpper
attr title "packets received from higher layer, sum(packetBytes)"
scalar org.mobileHost[1].wlan[1].mac passedUpPk:count 0
attr interpolationmode none
attr source packetSentToUpper
attr title "packets passed to higher layer, count"
scalar org.mobileHost[1].wlan[1].mac passedUpPk:sum(packetBytes) 0
attr interpolationmode none
attr source packetSentToUpper
attr title "packets passed to higher layer, sum(packetBytes)"
scalar org.mobileHost[1].wlan[1].mac rcvdPkFromLL:count 0
attr interpolationmode none
attr source packetReceivedFromLower
attr title "packets received from lower layer, count"
scalar org.mobileHost[1].wlan[1].mac rcvdPkFromLL:sum(packetBytes) 0
attr interpolationmode none
attr source packetReceivedFromLower
attr title "packets received from lower layer, sum(packetBytes)"
scalar org.mobileHost[1].wlan[1].mac sentDownPk:count 0
attr interpolationmode none
attr source packetSentToLower
attr title "packets sent to lower layer, count"
scalar org.mobileHost[1].wlan[1].mac sentDownPk:sum(packetBytes) 0
attr interpolationmode none
attr source packetSentToLower
attr title "packets sent to lower layer, sum(packetBytes)"
statistic org.mobileHost[1].wlan[1].radio symbolErrorRate:histogram
field count 0
field mean nan
field stddev nan
field min nan
field max nan
field sum 0
field sqrsum 0
attr source symbolErrorRate
attr title "Symbol error rate, histogram"
bin	-inf	0
bin	0	0
bin	1	0
statistic org.mobileHost[1].wlan[1].radio bitErrorRate:histogram
field count 0
field mean nan
field stddev nan
field min nan
field max nan
field sum 0
field sqrsum 0
attr source bitErrorRate
attr title "Bit error rate, histogram"
bin	-inf	0
bin	0	0
bin	1	0
statistic org.mobileHost[1].wlan[1].radio packetErrorRate:histogram
field count 0
field mean nan
field stddev nan
field min nan
field max nan
field sum 0
field sqrsum 0
attr source packetErrorRate
attr title "Packet error rate, histogram"
bin	-inf	0
bin	0	0
bin	1	0
statistic org.mobileHost[1].wlan[1].radio minSNIR:histogram
field count 0
field mean nan
field stddev nan
field min nan
field max nan
field sum 0
field sqrsum 0
attr source minSNIR
attr title "Min SNIR, histogram"
bin	-inf	0
bin	0	0
bin	1	0
scalar org.mobileHost[1].wlan[1].radio transmissionState:count 0
attr interpolationmode sample-hold
attr source transmissionStateChanged
attr title "Radio transmission state, count"
scalar org.mobileHost[1].wlan[1].radio receptionState:count 1
attr interpolationmode sample-hold
attr source receptionStateChanged
attr title "Radio reception state, count"
scalar org.mobileHost[1].wlan[1].radio radioMode:count 2
attr interpolationmode sample-hold
attr source radioModeChanged
attr title "Radio mode, count"
statistic org.mobileHost[1].wlan[1].radio radioChannel:histogram
field count 1
field mean 1
field stddev nan
field min 1
field max 1
field sum 1
field sqrsum 1
attr interpolationmode sample-hold
attr source radioChannelChanged
attr title "Radio channel, histogram"
bin	-inf	0
bin	0	0
bin	1	1
bin	2	0
scalar org.mobileHost[2].networkLayer.arp sentReply:count 0
attr title "ARP replies sent, count"
scalar org.mobileHost[2].networkLayer.arp sentReq:count 0
attr title "ARP request sent, count"
scalar org.mobileHost[2].networkLayer.arp initiatedARPResolution:count 0
attr title "ARP initiated resolutions, count"
scalar org.mobileHost[2].networkLayer.arp failedARPResolution:count 0
attr title "ARP failed resolutions, count"
scalar org.mobileHost[2].networkLayer.arp completedARPResolution:count 0
attr title "ARP completed resolutions, count"
scalar org.mobileHost[2].lo0.lo droppedPkBitError:count 0
attr interpolationmode none
attr source dropPkBitError
attr title "packets dropped/bit error, count"
scalar org.mobileHost[2].lo0.lo droppedPkBitError:sum(packetBytes) 0
attr interpolationmode none
attr source dropPkBitError
attr title "packets dropped/bit error, sum(packetBytes)"
scalar org.mobileHost[2].lo0.lo rcvdPkFromHL:count 0
attr interpolationmode none
attr source packetReceivedFromUpper
attr title "packets received from higher layer, count"
scalar org.mobileHost[2].lo0.lo rcvdPkFromHL:sum(packetBytes) 0
attr interpolationmode none
attr source packetReceivedFromUpper
attr title "packets received from higher layer, sum(packetBytes)"
scalar org.mobileHost[2].lo0.lo passedUpPk:count 0
attr interpolationmode none
attr source packetSentToUpper
attr title "packets passed to higher layer, count"
scalar org.mobileHost[2].lo0.lo passedUpPk:sum(packetBytes) 0
attr interpolationmode none
attr source packetSentToUpper
attr title "packets passed to higher layer, sum(packetBytes)"
scalar org.mobileHost[2].wlan[0].mac.statistics numReceivedUnicast 0
scalar org.mobileHost[2].wlan[0].mac.statistics numReceivedBroadcast 0
scalar org.mobileHost[2].wlan[0].mac.statistics numReceivedMulticast 0
scalar org.mobileHost[2].wlan[0].mac.statistics numReceivedNotForUs 0
scalar org.mobileHost[2].wlan[0].mac.statistics numReceivedErroneous 0
scalar org.mobileHost[2].wlan[0].mac rcvdPkFromHL:count 0
attr interpolationmode none
attr source packetReceivedFromUpper
attr title "packets received from higher layer, count"
scalar org.mobileHost[2].wlan[0].mac rcvdPkFromHL:sum(packetBytes) 0
attr interpolationmode none
attr source packetReceivedFromUpper
attr title "packets received from higher layer, sum(packetBytes)"
scalar org.mobileHost[2].wlan[0].mac passedUpPk:count 0
attr interpolationmode none
attr source packetSentToUpper
attr title "packets passed to higher layer, count"
scalar org.mobileHost[2].wlan[0].mac passedUpPk:sum(packetBytes) 0
attr interpolationmode none
attr source packetSentToUpper
attr title "packets passed to higher layer, sum(packetBytes)"
scalar org.mobileHost[2].wlan[0].mac rcvdPkFromLL:count 0
attr interpolationmode none
attr source packetReceivedFromLower
attr title "packets received from lower layer, count"
scalar org.mobileHost[2].wlan[0].mac rcvdPkFromLL:sum(packetBytes) 0
attr interpolationmode none
attr source packetReceivedFromLower
attr title "packets received from lower layer, sum(packetBytes)"
scalar org.mobileHost[2].wlan[0].mac sentDownPk:count 0
attr interpolationmode none
attr source packetSentToLower
attr title "packets sent to lower layer, count"
scalar org.mobileHost[2].wlan[0].mac sentDownPk:sum(packetBytes) 0
attr interpolationmode none
attr source packetSentToLower
attr title "packets sent to lower layer, sum(packetBytes)"
statistic org.mobileHost[2].wlan[0].radio symbolErrorRate:histogram
field count 0
field mean nan
field stddev nan
field min nan
field max nan
field sum 0
field sqrsum 0
attr source symbolErrorRate
attr title "Symbol error rate, histogram"
bin	-inf	0
bin	0	0
bin	1	0
statistic org.mobileHost[2].wlan[0].radio bitErrorRate:histogram
field count 0
field mean nan
field stddev nan
field min nan
field max nan
field sum 0
field sqrsum 0
attr source bitErrorRate
attr title "Bit error rate, histogram"
bin	-inf	0
bin	0	0
bin	1	0
statistic org.mobileHost[2].wlan[0].radio packetErrorRate:histogram
field count 0
field mean nan
field stddev nan
field min nan
field max nan
field sum 0
field sqrsum 0
attr source packetErrorRate
attr title "Packet error rate, histogram"
bin	-inf	0
bin	0	0
bin	1	0
statistic org.mobileHost[2].wlan[0].radio minSNIR:histogram
field count 0
field mean nan
field stddev nan
field min nan
field max nan
field sum 0
field sqrsum 0
attr source minSNIR
attr title "Min SNIR, histogram"
bin	-inf	0
bin	0	0
bin	1	0
scalar org.mobileHost[2].wlan[0].radio transmissionState:count 0
attr interpolationmode sample-hold
attr source transmissionStateChanged
attr title "Radio transmission state, count"
scalar org.mobileHost[2].wlan[0].radio receptionState:count 1
attr interpolationmode sample-hold
attr source receptionStateChanged
attr title "Radio reception state, count"
scalar org.mobileHost[2].wlan[0].radio radioMode:count 2
attr interpolationmode sample-hold
attr source radioModeChanged
attr title "Radio mode, count"
statistic org.mobileHost[2].wlan[0].radio radioChannel:histogram
field count 1
field mean 0
field stddev nan
field min 0
field max 0
field sum 0
field sqrsum 0
attr interpolationmode sample-hold
attr source radioChannelChanged
attr title "Radio channel, histogram"
bin	-inf	0
bin	-0.5	0
bin	-0.48	0
bin	-0.46	0
bin	-0.44	0
bin	-0.42	0
bin	-0.4	0
bin	-0.38	0
bin	-0.36	0
bin	-0.34	0
bin	-0.32	0
bin	-0.3	0
bin	-0.28	0
bin	-0.26	0
bin	-0.24	0
bin	-0.22	0
bin	-0.2	0
bin	-0.18	0
bin	-0.16	0
bin	-0.14	0
bin	-0.12	0
bin	-0.1	0
bin	-0.08	0
bin	-0.06	0
bin	-0.04	0
bin	-0.02	0
bin	0	1
bin	0.02	0
bin	0.04	0
bin	0.06	0
bin	0.08	0
bin	0.1	0
bin	0.12	0
bin	0.14	0
bin	0.16	0
bin	0.18	0
bin	0.2	0
bin	0.22	0
bin	0.24	0
bin	0.26	0
bin	0.28	0
bin	0.3	0
bin	0.32	0
bin	0.34	0
bin	0.36	0
bin	0.38	0
bin	0.4	0
bin	0.42	0
bin	0.44	0
bin	0.46	0
bin	0.48	0
bin	0.5	0
scalar org.mobileHost[2].wlan[1].mac.statistics numReceivedUnicast 0
scalar org.mobileHost[2].wlan[1].mac.statistics numReceivedBroadcast 0
scalar org.mobileHost[2].wlan[1].mac.statistics numReceivedMulticast 0
scalar org.mobileHost[2].wlan[1].mac.statistics numReceivedNotForUs 0
scalar org.mobileHost[2].wlan[1].mac.statistics numReceivedErroneous 0
scalar org.mobileHost[2].wlan[1].mac rcvdPkFromHL:count 0
attr interpolationmode none
attr source packetReceivedFromUpper
attr title "packets received from higher layer, count"
scalar org.mobileHost[2].wlan[1].mac rcvdPkFromHL:sum(packetBytes) 0
attr interpolationmode none
attr source packetReceivedFromUpper
attr title "packets received from higher layer, sum(packetBytes)"
scalar org.mobileHost[2].wlan[1].mac passedUpPk:count 0
attr interpolationmode none
attr source packetSentToUpper
attr title "packets passed to higher layer, count"
scalar org.mobileHost[2].wlan[1].mac passedUpPk:sum(packetBytes) 0
attr interpolationmode none
attr source packetSentToUpper
attr title "packets passed to higher layer, sum(packetBytes)"
scalar org.mobileHost[2].wlan[1].mac rcvdPkFromLL:count 2
attr interpolationmode none
attr source packetReceivedFromLower
attr title "packets received from lower layer, count"
scalar org.mobileHost[2].wlan[1].mac rcvdPkFromLL:sum(packetBytes) 2128
attr interpolationmode none
attr source packetReceivedFromLower
attr title "packets received from lower layer, sum(packetBytes)"
scalar org.mobileHost[2].wlan[1].mac sentDownPk:count 0
attr interpolationmode none
attr source packetSentToLower
attr title "packets sent to lower layer, count"
scalar org.mobileHost[2].wlan[1].mac sentDownPk:sum(packetBytes) 0
attr interpolationmode none
attr source packetSentToLower
attr title "packets sent to lower layer, sum(packetBytes)"
statistic org.mobileHost[2].wlan[1].radio symbolErrorRate:histogram
field count 0
field mean nan
field stddev nan
field min nan
field max nan
field sum 0
field sqrsum 0
attr source symbolErrorRate
attr title "Symbol error rate, histogram"
bin	-inf	0
bin	0	0
bin	1	0
statistic org.mobileHost[2].wlan[1].radio bitErrorRate:histogram
field count 0
field mean nan
field stddev nan
field min nan
field max nan
field sum 0
field sqrsum 0
attr source bitErrorRate
attr title "Bit error rate, histogram"
bin	-inf	0
bin	0	0
bin	1	0
statistic org.mobileHost[2].wlan[1].radio packetErrorRate:histogram
field count 2
field mean 1
field stddev 0
field min 1
field max 1
field sum 2
field sqrsum 2
attr source packetErrorRate
attr title "Packet error rate, histogram"
bin	-inf	0
bin	0	0
bin	1	2
bin	2	0
statistic org.mobileHost[2].wlan[1].radio minSNIR:histogram
field count 2
field mean 5.1031011082416
field stddev 0
field min 5.1031011082416
field max 5.1031011082416
field sum 10.206202216483
field sqrsum 52.083281841873
attr source minSNIR
attr title "Min SNIR, histogram"
bin	-inf	0
bin	4.6	0
bin	4.62	0
bin	4.64	0
bin	4.66	0
bin	4.68	0
bin	4.7	0
bin	4.72	0
bin	4.74	0
bin	4.76	0
bin	4.78	0
bin	4.8	0
bin	4.82	0
bin	4.84	0
bin	4.86	0
bin	4.88	0
bin	4.9	0
bin	4.92	0
bin	4.94	0
bin	4.96	0
bin	4.98	0
bin	5	0
bin	5.02	0
bin	5.04	0
bin	5.06	0
bin	5.08	0
bin	5.1	2
bin	5.12	0
bin	5.14	0
bin	5.16	0
bin	5.18	0
bin	5.2	0
bin	5.22	0
bin	5.24	0
bin	5.26	0
bin	5.28	0
bin	5.3	0
bin	5.32	0
bin	5.34	0
bin	5.36	0
bin	5.38	0
bin	5.4	0
bin	5.42	0
bin	5.44	0
bin	5.46	0
bin	5.48	0
bin	5.5	0
bin	5.52	0
bin	5.54	0
bin	5.56	0
bin	5.58	0
bin	5.6	0
bin	5.62	0
scalar org.mobileHost[2].wlan[1].radio transmissionState:count 0
attr interpolationmode sample-hold
attr source transmissionStateChanged
attr title "Radio transmission state, count"
scalar org.mobileHost[2].wlan[1].radio receptionState:count 6
attr interpolationmode sample-hold
attr source receptionStateChanged
attr title "Radio reception state, count"
scalar org.mobileHost[2].wlan[1].radio radioMode:count 2
attr interpolationmode sample-hold
attr source radioModeChanged
attr title "Radio mode, count"
statistic org.mobileHost[2].wlan[1].radio radioChannel:histogram
field count 1
field mean 2
field stddev nan
field min 2
field max 2
field sum 2
field sqrsum 4
attr interpolationmode sample-hold
attr source radioChannelChanged
attr title "Radio channel, histogram"
bin	-inf	0
bin	1	0
bin	2	1
bin	3	0
scalar org.mobileHost[3].networkLayer.arp sentReply:count 0
attr title "ARP replies sent, count"
scalar org.mobileHost[3].networkLayer.arp sentReq:count 0
attr title "ARP request sent, count"
scalar org.mobileHost[3].networkLayer.arp initiatedARPResolution:count 0
attr title "ARP initiated resolutions, count"
scalar org.mobileHost[3].networkLayer.arp failedARPResolution:count 0
attr title "ARP failed resolutions, count"
scalar org.mobileHost[3].networkLayer.arp completedARPResolution:count 0
attr title "ARP completed resolutions, count"
scalar org.mobileHost[3].lo0.lo droppedPkBitError:count 0
attr interpolationmode none
attr source dropPkBitError
attr title "packets dropped/bit error, count"
scalar org.mobileHost[3].lo0.lo droppedPkBitError:sum(packetBytes) 0
attr interpolationmode none
attr source dropPkBitError
attr title "packets dropped/bit error, sum(packetBytes)"
scalar org.mobileHost[3].lo0.lo rcvdPkFromHL:count 0
attr interpolationmode none
attr source packetReceivedFromUpper
attr title "packets received from higher layer, count"
scalar org.mobileHost[3].lo0.lo rcvdPkFromHL:sum(packetBytes) 0
attr interpolationmode none
attr source packetReceivedFromUpper
attr title "packets received from higher layer, sum(packetBytes)"
scalar org.mobileHost[3].lo0.lo passedUpPk:count 0
attr interpolationmode none
attr source packetSentToUpper
attr title "packets passed to higher layer, count"
scalar org.mobileHost[3].lo0.lo passedUpPk:sum(packetBytes) 0
attr interpolationmode none
attr source packetSentToUpper
attr title "packets passed to higher layer, sum(packetBytes)"
scalar org.mobileHost[3].wlan[0].mac.statistics numReceivedUnicast 0
scalar org.mobileHost[3].wlan[0].mac.statistics numReceivedBroadcast 0
scalar org.mobileHost[3].wlan[0].mac.statistics numReceivedMulticast 0
scalar org.mobileHost[3].wlan[0].mac.statistics numReceivedNotForUs 0
scalar org.mobileHost[3].wlan[0].mac.statistics numReceivedErroneous 0
scalar org.mobileHost[3].wlan[0].mac rcvdPkFromHL:count 0
attr interpolationmode none
attr source packetReceivedFromUpper
attr title "packets received from higher layer, count"
scalar org.mobileHost[3].wlan[0].mac rcvdPkFromHL:sum(packetBytes) 0
attr interpolationmode none
attr source packetReceivedFromUpper
attr title "packets received from higher layer, sum(packetBytes)"
scalar org.mobileHost[3].wlan[0].mac passedUpPk:count 0
attr interpolationmode none
attr source packetSentToUpper
attr title "packets passed to higher layer, count"
scalar org.mobileHost[3].wlan[0].mac passedUpPk:sum(packetBytes) 0
attr interpolationmode none
attr source packetSentToUpper
attr title "packets passed to higher layer, sum(packetBytes)"
scalar org.mobileHost[3].wlan[0].mac rcvdPkFromLL:count 0
attr interpolationmode none
attr source packetReceivedFromLower
attr title "packets received from lower layer, count"
scalar org.mobileHost[3].wlan[0].mac rcvdPkFromLL:sum(packetBytes) 0
attr interpolationmode none
attr source packetReceivedFromLower
attr title "packets received from lower layer, sum(packetBytes)"
scalar org.mobileHost[3].wlan[0].mac sentDownPk:count 0
attr interpolationmode none
attr source packetSentToLower
attr title "packets sent to lower layer, count"
scalar org.mobileHost[3].wlan[0].mac sentDownPk:sum(packetBytes) 0
attr interpolationmode none
attr source packetSentToLower
attr title "packets sent to lower layer, sum(packetBytes)"
statistic org.mobileHost[3].wlan[0].radio symbolErrorRate:histogram
field count 0
field mean nan
field stddev nan
field min nan
field max nan
field sum 0
field sqrsum 0
attr source symbolErrorRate
attr title "Symbol error rate, histogram"
bin	-inf	0
bin	0	0
bin	1	0
statistic org.mobileHost[3].wlan[0].radio bitErrorRate:histogram
field count 0
field mean nan
field stddev nan
field min nan
field max nan
field sum 0
field sqrsum 0
attr source bitErrorRate
attr title "Bit error rate, histogram"
bin	-inf	0
bin	0	0
bin	1	0
statistic org.mobileHost[3].wlan[0].radio packetErrorRate:histogram
field count 0
field mean nan
field stddev nan
field min nan
field max nan
field sum 0
field sqrsum 0
attr source packetErrorRate
attr title "Packet error rate, histogram"
bin	-inf	0
bin	0	0
bin	1	0
statistic org.mobileHost[3].wlan[0].radio minSNIR:histogram
field count 0
field mean nan
field stddev nan
field min nan
field max nan
field sum 0
field sqrsum 0
attr source minSNIR
attr title "Min SNIR, histogram"
bin	-inf	0
bin	0	0
bin	1	0
scalar org.mobileHost[3].wlan[0].radio transmissionState:count 0
attr interpolationmode sample-hold
attr source transmissionStateChanged
attr title "Radio transmission state, count"
scalar org.mobileHost[3].wlan[0].radio receptionState:count 1
attr interpolationmode sample-hold
attr source receptionStateChanged
attr title "Radio reception state, count"
scalar org.mobileHost[3].wlan[0].radio radioMode:count 2
attr interpolationmode sample-hold
attr source radioModeChanged
attr title "Radio mode, count"
statistic org.mobileHost[3].wlan[0].radio radioChannel:histogram
field count 1
field mean 1
field stddev nan
field min 1
field max 1
field sum 1
field sqrsum 1
attr interpolationmode sample-hold
attr source radioChannelChanged
attr title "Radio channel, histogram"
bin	-inf	0
bin	0	0
bin	1	1
bin	2	0
scalar org.mobileHost[3].wlan[1].mac.statistics numReceivedUnicast 0
scalar org.mobileHost[3].wlan[1].mac.statistics numReceivedBroadcast 0
scalar org.mobileHost[3].wlan[1].mac.statistics numReceivedMulticast 0
scalar org.mobileHost[3].wlan[1].mac.statistics numReceivedNotForUs 0
scalar org.mobileHost[3].wlan[1].mac.statistics numReceivedErroneous 0
scalar org.mobileHost[3].wlan[1].mac rcvdPkFromHL:count 0
attr interpolationmode none
attr source packetReceivedFromUpper
attr title "packets received from higher layer, count"
scalar org.mobileHost[3].wlan[1].mac rcvdPkFromHL:sum(packetBytes) 0
attr interpolationmode none
attr source packetReceivedFromUpper
attr title "packets received from higher layer, sum(packetBytes)"
scalar org.mobileHost[3].wlan[1].mac passedUpPk:count 0
attr interpolationmode none
attr source packetSentToUpper
attr title "packets passed to higher layer, count"
scalar org.mobileHost[3].wlan[1].mac passedUpPk:sum(packetBytes) 0
attr interpolationmode none
attr source packetSentToUpper
attr title "packets passed to higher layer, sum(packetBytes)"
scalar org.mobileHost[3].wlan[1].mac rcvdPkFromLL:count 2
attr interpolationmode none
attr source packetReceivedFromLower
attr title "packets received from lower layer, count"
scalar org.mobileHost[3].wlan[1].mac rcvdPkFromLL:sum(packetBytes) 2128
attr interpolationmode none
attr source packetReceivedFromLower
attr title "packets received from lower layer, sum(packetBytes)"
scalar org.mobileHost[3].wlan[1].mac sentDownPk:count 0
attr interpolationmode none
attr source packetSentToLower
attr title "packets sent to lower layer, count"
scalar org.mobileHost[3].wlan[1].mac sentDownPk:sum(packetBytes) 0
attr interpolationmode none
attr source packetSentToLower
attr title "packets sent to lower layer, sum(packetBytes)"
statistic org.mobileHost[3].wlan[1].radio symbolErrorRate:histogram
field count 0
field mean nan
field stddev nan
field min nan
field max nan
field sum 0
field sqrsum 0
attr source symbolErrorRate
attr title "Symbol error rate, histogram"
bin	-inf	0
bin	0	0
bin	1	0
statistic org.mobileHost[3].wlan[1].radio bitErrorRate:histogram
field count 0
field mean nan
field stddev nan
field min nan
field max nan
field sum 0
field sqrsum 0
attr source bitErrorRate
attr title "Bit error rate, histogram"
bin	-inf	0
bin	0	0
bin	1	0
statistic org.mobileHost[3].wlan[1].radio packetErrorRate:histogram
field count 2
field mean 1
field stddev 0
field min 1
field max 1
field sum 2
field sqrsum 2
attr source packetErrorRate
attr title "Packet error rate, histogram"
bin	-inf	0
bin	0	0
bin	1	2
bin	2	0
statistic org.mobileHost[3].wlan[1].radio minSNIR:histogram
field count 2
field mean 3.9254623909551
field stddev 0
field min 3.9254623909551
field max 3.9254623909551
field sum 7.8509247819101
field sqrsum 30.818509965605
attr source minSNIR
attr title "Min SNIR, histogram"
bin	-inf	0
bin	3.42	0
bin	3.44	0
bin	3.46	0
bin	3.48	0
bin	3.5	0
bin	3.52	0
bin	3.54	0
bin	3.56	0
bin	3.58	0
bin	3.6	0
bin	3.62	0
bin	3.64	0
bin	3.66	0
bin	3.68	0
bin	3.7	0
bin	3.72	0
bin	3.74	0
bin	3.76	0
bin	3.78	0
bin	3.8	0
bin	3.82	0
bin	3.84	0
bin	3.86	0
bin	3.88	0
bin	3.9	0
bin	3.92	2
bin	3.94	0
bin	3.96	0
bin	3.98	0
bin	4	0
bin	4.02	0
bin	4.04	0
bin	4.06	0
bin	4.08	0
bin	4.1	0
bin	4.12	0
bin	4.14	0
bin	4.16	0
bin	4.18	0
bin	4.2	0
bin	4.22	0
bin	4.24	0
bin	4.26	0
bin	4.28	0
bin	4.3	0
bin	4.32	0
bin	4.34	0
bin	4.36	0
bin	4.38	0
bin	4.4	0
bin	4.42	0
bin	4.44	0
scalar org.mobileHost[3].wlan[1].radio transmissionState:count 0
attr interpolationmode sample-hold
attr source transmissionStateChanged
attr title "Radio transmission state, count"
scalar org.mobileHost[3].wlan[1].radio receptionState:count 6
attr interpolationmode sample-hold
attr source receptionStateChanged
attr title "Radio reception state, count"
scalar org.mobileHost[3].wlan[1].radio radioMode:count 2
attr interpolationmode sample-hold
attr source radioModeChanged
attr title "Radio mode, count"
statistic org.mobileHost[3].wlan[1].radio radioChannel:histogram
field count 1
field mean 2
field stddev nan
field min 2
field max 2
field sum 2
field sqrsum 4
attr interpolationmode sample-hold
attr source radioChannelChanged
attr title "Radio channel, histogram"
bin	-inf	0
bin	1	0
bin	2	1
bin	3	0
scalar org.mobileHost[4].networkLayer.arp sentReply:count 0
attr title "ARP replies sent, count"
scalar org.mobileHost[4].networkLayer.arp sentReq:count 0
attr title "ARP request sent, count"
scalar org.mobileHost[4].networkLayer.arp initiatedARPResolution:count 0
attr title "ARP initiated resolutions, count"
scalar org.mobileHost[4].networkLayer.arp failedARPResolution:count 0
attr title "ARP failed resolutions, count"
scalar org.mobileHost[4].networkLayer.arp completedARPResolution:count 0
attr title "ARP completed resolutions, count"
scalar org.mobileHost[4].lo0.lo droppedPkBitError:count 0
attr interpolationmode none
attr source dropPkBitError
attr title "packets dropped/bit error, count"
scalar org.mobileHost[4].lo0.lo droppedPkBitError:sum(packetBytes) 0
attr interpolationmode none
attr source dropPkBitError
attr title "packets dropped/bit error, sum(packetBytes)"
scalar org.mobileHost[4].lo0.lo rcvdPkFromHL:count 0
attr interpolationmode none
attr source packetReceivedFromUpper
attr title "packets received from higher layer, count"
scalar org.mobileHost[4].lo0.lo rcvdPkFromHL:sum(packetBytes) 0
attr interpolationmode none
attr source packetReceivedFromUpper
attr title "packets received from higher layer, sum(packetBytes)"
scalar org.mobileHost[4].lo0.lo passedUpPk:count 0
attr interpolationmode none
attr source packetSentToUpper
attr title "packets passed to higher layer, count"
scalar org.mobileHost[4].lo0.lo passedUpPk:sum(packetBytes) 0
attr interpolationmode none
attr source packetSentToUpper
attr title "packets passed to higher layer, sum(packetBytes)"
scalar org.mobileHost[4].wlan[0].mac.statistics numReceivedUnicast 0
scalar org.mobileHost[4].wlan[0].mac.statistics numReceivedBroadcast 0
scalar org.mobileHost[4].wlan[0].mac.statistics numReceivedMulticast 0
scalar org.mobileHost[4].wlan[0].mac.statistics numReceivedNotForUs 0
scalar org.mobileHost[4].wlan[0].mac.statistics numReceivedErroneous 0
scalar org.mobileHost[4].wlan[0].mac rcvdPkFromHL:count 0
attr interpolationmode none
attr source packetReceivedFromUpper
attr title "packets received from higher layer, count"
scalar org.mobileHost[4].wlan[0].mac rcvdPkFromHL:sum(packetBytes) 0
attr interpolationmode none
attr source packetReceivedFromUpper
attr title "packets received from higher layer, sum(packetBytes)"
scalar org.mobileHost[4].wlan[0].mac passedUpPk:count 0
attr interpolationmode none
attr source packetSentToUpper
attr title "packets passed to higher layer, count"
scalar org.mobileHost[4].wlan[0].mac passedUpPk:sum(packetBytes) 0
attr interpolationmode none
attr source packetSentToUpper
attr title "packets passed to higher layer, sum(packetBytes)"
scalar org.mobileHost[4].wlan[0].mac rcvdPkFromLL:count 0
attr interpolationmode none
attr source packetReceivedFromLower
attr title "packets received from lower layer, count"
scalar org.mobileHost[4].wlan[0].mac rcvdPkFromLL:sum(packetBytes) 0
attr interpolationmode none
attr source packetReceivedFromLower
attr title "packets received from lower layer, sum(packetBytes)"
scalar org.mobileHost[4].wlan[0].mac sentDownPk:count 0
attr interpolationmode none
attr source packetSentToLower
attr title "packets sent to lower layer, count"
scalar org.mobileHost[4].wlan[0].mac sentDownPk:sum(packetBytes) 0
attr interpolationmode none
attr source packetSentToLower
attr title "packets sent to lower layer, sum(packetBytes)"
statistic org.mobileHost[4].wlan[0].radio symbolErrorRate:histogram
field count 0
field mean nan
field stddev nan
field min nan
field max nan
field sum 0
field sqrsum 0
attr source symbolErrorRate
attr title "Symbol error rate, histogram"
bin	-inf	0
bin	0	0
bin	1	0
statistic org.mobileHost[4].wlan[0].radio bitErrorRate:histogram
field count 0
field mean nan
field stddev nan
field min nan
field max nan
field sum 0
field sqrsum 0
attr source bitErrorRate
attr title "Bit error rate, histogram"
bin	-inf	0
bin	0	0
bin	1	0
statistic org.mobileHost[4].wlan[0].radio packetErrorRate:histogram
field count 0
field mean nan
field stddev nan
field min nan
field max nan
field sum 0
field sqrsum 0
attr source packetErrorRate
attr title "Packet error rate, histogram"
bin	-inf	0
bin	0	0
bin	1	0
statistic org.mobileHost[4].wlan[0].radio minSNIR:histogram
field count 0
field mean nan
field stddev nan
field min nan
field max nan
field sum 0
field sqrsum 0
attr source minSNIR
attr title "Min SNIR, histogram"
bin	-inf	0
bin	0	0
bin	1	0
scalar org.mobileHost[4].wlan[0].radio transmissionState:count 0
attr interpolationmode sample-hold
attr source transmissionStateChanged
attr title "Radio transmission state, count"
scalar org.mobileHost[4].wlan[0].radio receptionState:count 1
attr interpolationmode sample-hold
attr source receptionStateChanged
attr title "Radio reception state, count"
scalar org.mobileHost[4].wlan[0].radio radioMode:count 2
attr interpolationmode sample-hold
attr source radioModeChanged
attr title "Radio mode, count"
statistic org.mobileHost[4].wlan[0].radio radioChannel:histogram
field count 1
field mean 0
field stddev nan
field min 0
field max 0
field sum 0
field sqrsum 0
attr interpolationmode sample-hold
attr source radioChannelChanged
attr title "Radio channel, histogram"
bin	-inf	0
bin	-0.5	0
bin	-0.48	0
bin	-0.46	0
bin	-0.44	0
bin	-0.42	0
bin	-0.4	0
bin	-0.38	0
bin	-0.36	0
bin	-0.34	0
bin	-0.32	0
bin	-0.3	0
bin	-0.28	0
bin	-0.26	0
bin	-0.24	0
bin	-0.22	0
bin	-0.2	0
bin	-0.18	0
bin	-0.16	0
bin	-0.14	0
bin	-0.12	0
bin	-0.1	0
bin	-0.08	0
bin	-0.06	0
bin	-0.04	0
bin	-0.02	0
bin	0	1
bin	0.02	0
bin	0.04	0
bin	0.06	0
bin	0.08	0
bin	0.1	0
bin	0.12	0
bin	0.14	0
bin	0.16	0
bin	0.18	0
bin	0.2	0
bin	0.22	0
bin	0.24	0
bin	0.26	0
bin	0.28	0
bin	0.3	0
bin	0.32	0
bin	0.34	0
bin	0.36	0
bin	0.38	0
bin	0.4	0
bin	0.42	0
bin	0.44	0
bin	0.46	0
bin	0.48	0
bin	0.5	0
scalar org.mobileHost[4].wlan[1].mac.statistics numReceivedUnicast 0
scalar org.mobileHost[4].wlan[1].mac.statistics numReceivedBroadcast 0
scalar org.mobileHost[4].wlan[1].mac.statistics numReceivedMulticast 0
scalar org.mobileHost[4].wlan[1].mac.statistics numReceivedNotForUs 0
scalar org.mobileHost[4].wlan[1].mac.statistics numReceivedErroneous 0
scalar org.mobileHost[4].wlan[1].mac rcvdPkFromHL:count 0
attr interpolationmode none
attr source packetReceivedFromUpper
attr title "packets received from higher layer, count"
scalar org.mobileHost[4].wlan[1].mac rcvdPkFromHL:sum(packetBytes) 0
attr interpolationmode none
attr source packetReceivedFromUpper
attr title "packets received from higher layer, sum(packetBytes)"
scalar org.mobileHost[4].wlan[1].mac passedUpPk:count 0
attr interpolationmode none
attr source packetSentToUpper
attr title "packets passed to higher layer, count"
scalar org.mobileHost[4].wlan[1].mac passedUpPk:sum(packetBytes) 0
attr interpolationmode none
attr source packetSentToUpper
attr title "packets passed to higher layer, sum(packetBytes)"
scalar org.mobileHost[4].wlan[1].mac rcvdPkFromLL:count 0
attr interpolationmode none
attr source packetReceivedFromLower
attr title "packets received from lower layer, count"
scalar org.mobileHost[4].wlan[1].mac rcvdPkFromLL:sum(packetBytes) 0
attr interpolationmode none
attr source packetReceivedFromLower
attr title "packets received from lower layer, sum(packetBytes)"
scalar org.mobileHost[4].wlan[1].mac sentDownPk:count 0
attr interpolationmode none
attr source packetSentToLower
attr title "packets sent to lower layer, count"
scalar org.mobileHost[4].wlan[1].mac sentDownPk:sum(packetBytes) 0
attr interpolationmode none
attr source packetSentToLower
attr title "packets sent to lower layer, sum(packetBytes)"
statistic org.mobileHost[4].wlan[1].radio symbolErrorRate:histogram
field count 0
field mean nan
field stddev nan
field min nan
field max nan
field sum 0
field sqrsum 0
attr source symbolErrorRate
attr title "Symbol error rate, histogram"
bin	-inf	0
bin	0	0
bin	1	0
statistic org.mobileHost[4].wlan[1].radio bitErrorRate:histogram
field count 0
field mean nan
field stddev nan
field min nan
field max nan
field sum 0
field sqrsum 0
attr source bitErrorRate
attr title "Bit error rate, histogram"
bin	-inf	0
bin	0	0
bin	1	0
statistic org.mobileHost[4].wlan[1].radio packetErrorRate:histogram
field count 0
field mean nan
field stddev nan
field min nan
field max nan
field sum 0
field sqrsum 0
attr source packetErrorRate
attr title "Packet error rate, histogram"
bin	-inf	0
bin	0	0
bin	1	0
statistic org.mobileHost[4].wlan[1].radio minSNIR:histogram
field count 0
field mean nan
field stddev nan
field min nan
field max nan
field sum 0
field sqrsum 0
attr source minSNIR
attr title "Min SNIR, histogram"
bin	-inf	0
bin	0	0
bin	1	0
scalar org.mobileHost[4].wlan[1].radio transmissionState:count 0
attr interpolationmode sample-hold
attr source transmissionStateChanged
attr title "Radio transmission state, count"
scalar org.mobileHost[4].wlan[1].radio receptionState:count 1
attr interpolationmode sample-hold
attr source receptionStateChanged
attr title "Radio reception state, count"
scalar org.mobileHost[4].wlan[1].radio radioMode:count 2
attr interpolationmode sample-hold
attr source radioModeChanged
attr title "Radio mode, count"
statistic org.mobileHost[4].wlan[1].radio radioChannel:histogram
field count 1
field mean 1
field stddev nan
field min 1
field max 1
field sum 1
field sqrsum 1
attr interpolationmode sample-hold
attr source radioChannelChanged
attr title "Radio channel, histogram"
bin	-inf	0
bin	0	0
bin	1	1
bin	2	0
scalar org.mobileHost[5].networkLayer.arp sentReply:count 0
attr title "ARP replies sent, count"
scalar org.mobileHost[5].networkLayer.arp sentReq:count 0
attr title "ARP request sent, count"
scalar org.mobileHost[5].networkLayer.arp initiatedARPResolution:count 0
attr title "ARP initiated resolutions, count"
scalar org.mobileHost[5].networkLayer.arp failedARPResolution:count 0
attr title "ARP failed resolutions, count"
scalar org.mobileHost[5].networkLayer.arp completedARPResolution:count 0
attr title "ARP completed resolutions, count"
scalar org.mobileHost[5].lo0.lo droppedPkBitError:count 0
attr interpolationmode none
attr source dropPkBitError
attr title "packets dropped/bit error, count"
scalar org.mobileHost[5].lo0.lo droppedPkBitError:sum(packetBytes) 0
attr interpolationmode none
attr source dropPkBitError
attr title "packets dropped/bit error, sum(packetBytes)"
scalar org.mobileHost[5].lo0.lo rcvdPkFromHL:count 0
attr interpolationmode none
attr source packetReceivedFromUpper
attr title "packets received from higher layer, count"
scalar org.mobileHost[5].lo0.lo rcvdPkFromHL:sum(packetBytes) 0
attr interpolationmode none
attr source packetReceivedFromUpper
attr title "packets received from higher layer, sum(packetBytes)"
scalar org.mobileHost[5].lo0.lo passedUpPk:count 0
attr interpolationmode none
attr source packetSentToUpper
attr title "packets passed to higher layer, count"
scalar org.mobileHost[5].lo0.lo passedUpPk:sum(packetBytes) 0
attr interpolationmode none
attr source packetSentToUpper
attr title "packets passed to higher layer, sum(packetBytes)"
scalar org.mobileHost[5].wlan[0].mac.statistics numReceivedUnicast 0
scalar org.mobileHost[5].wlan[0].mac.statistics numReceivedBroadcast 0
scalar org.mobileHost[5].wlan[0].mac.statistics numReceivedMulticast 0
scalar org.mobileHost[5].wlan[0].mac.statistics numReceivedNotForUs 0
scalar org.mobileHost[5].wlan[0].mac.statistics numReceivedErroneous 0
scalar org.mobileHost[5].wlan[0].mac rcvdPkFromHL:count 0
attr interpolationmode none
attr source packetReceivedFromUpper
attr title "packets received from higher layer, count"
scalar org.mobileHost[5].wlan[0].mac rcvdPkFromHL:sum(packetBytes) 0
attr interpolationmode none
attr source packetReceivedFromUpper
attr title "packets received from higher layer, sum(packetBytes)"
scalar org.mobileHost[5].wlan[0].mac passedUpPk:count 0
attr interpolationmode none
attr source packetSentToUpper
attr title "packets passed to higher layer, count"
scalar org.mobileHost[5].wlan[0].mac passedUpPk:sum(packetBytes) 0
attr interpolationmode none
attr source packetSentToUpper
attr title "packets passed to higher layer, sum(packetBytes)"
scalar org.mobileHost[5].wlan[0].mac rcvdPkFromLL:count 0
attr interpolationmode none
attr source packetReceivedFromLower
attr title "packets received from lower layer, count"
scalar org.mobileHost[5].wlan[0].mac rcvdPkFromLL:sum(packetBytes) 0
attr interpolationmode none
attr source packetReceivedFromLower
attr title "packets received from lower layer, sum(packetBytes)"
scalar org.mobileHost[5].wlan[0].mac sentDownPk:count 0
attr interpolationmode none
attr source packetSentToLower
attr title "packets sent to lower layer, count"
scalar org.mobileHost[5].wlan[0].mac sentDownPk:sum(packetBytes) 0
attr interpolationmode none
attr source packetSentToLower
attr title "packets sent to lower layer, sum(packetBytes)"
statistic org.mobileHost[5].wlan[0].radio symbolErrorRate:histogram
field count 0
field mean nan
field stddev nan
field min nan
field max nan
field sum 0
field sqrsum 0
attr source symbolErrorRate
attr title "Symbol error rate, histogram"
bin	-inf	0
bin	0	0
bin	1	0
statistic org.mobileHost[5].wlan[0].radio bitErrorRate:histogram
field count 0
field mean nan
field stddev nan
field min nan
field max nan
field sum 0
field sqrsum 0
attr source bitErrorRate
attr title "Bit error rate, histogram"
bin	-inf	0
bin	0	0
bin	1	0
statistic org.mobileHost[5].wlan[0].radio packetErrorRate:histogram
field count 0
field mean nan
field stddev nan
field min nan
field max nan
field sum 0
field sqrsum 0
attr source packetErrorRate
attr title "Packet error rate, histogram"
bin	-inf	0
bin	0	0
bin	1	0
statistic org.mobileHost[5].wlan[0].radio minSNIR:histogram
field count 0
field mean nan
field stddev nan
field min nan
field max nan
field sum 0
field sqrsum 0
attr source minSNIR
attr title "Min SNIR, histogram"
bin	-inf	0
bin	0	0
bin	1	0
scalar org.mobileHost[5].wlan[0].radio transmissionState:count 0
attr interpolationmode sample-hold
attr source transmissionStateChanged
attr title "Radio transmission state, count"
scalar org.mobileHost[5].wlan[0].radio receptionState:count 1
attr interpolationmode sample-hold
attr source receptionStateChanged
attr title "Radio reception state, count"
scalar org.mobileHost[5].wlan[0].radio radioMode:count 2
attr interpolationmode sample-hold
attr source radioModeChanged
attr title "Radio mode, count"
statistic org.mobileHost[5].wlan[0].radio radioChannel:histogram
field count 1
field mean 1
field stddev nan
field min 1
field max 1
field sum 1
field sqrsum 1
attr interpolationmode sample-hold
attr source radioChannelChanged
attr title "Radio channel, histogram"
bin	-inf	0
bin	0	0
bin	1	1
bin	2	0
scalar org.mobileHost[5].wlan[1].mac.statistics numReceivedUnicast 0
scalar org.mobileHost[5].wlan[1].mac.statistics numReceivedBroadcast 0
scalar org.mobileHost[5].wlan[1].mac.statistics numReceivedMulticast 0
scalar org.mobileHost[5].wlan[1].mac.statistics numReceivedNotForUs 0
scalar org.mobileHost[5].wlan[1].mac.statistics numReceivedErroneous 0
scalar org.mobileHost[5].wlan[1].mac rcvdPkFromHL:count 0
attr interpolationmode none
attr source packetReceivedFromUpper
attr title "packets received from higher layer, count"
scalar org.mobileHost[5].wlan[1].mac rcvdPkFromHL:sum(packetBytes) 0
attr interpolationmode none
attr source packetReceivedFromUpper
attr title "packets received from higher layer, sum(packetBytes)"
scalar org.mobileHost[5].wlan[1].mac passedUpPk:count 0
attr interpolationmode none
attr source packetSentToUpper
attr title "packets passed to higher layer, count"
scalar org.mobileHost[5].wlan[1].mac passedUpPk:sum(packetBytes) 0
attr interpolationmode none
attr source packetSentToUpper
attr title "packets passed to higher layer, sum(packetBytes)"
scalar org.mobileHost[5].wlan[1].mac rcvdPkFromLL:count 2
attr interpolationmode none
attr source packetReceivedFromLower
attr title "packets received from lower layer, count"
scalar org.mobileHost[5].wlan[1].mac rcvdPkFromLL:sum(packetBytes) 2128
attr interpolationmode none
attr source packetReceivedFromLower
attr title "packets received from lower layer, sum(packetBytes)"
scalar org.mobileHost[5].wlan[1].mac sentDownPk:count 0
attr interpolationmode none
attr source packetSentToLower
attr title "packets sent to lower layer, count"
scalar org.mobileHost[5].wlan[1].mac sentDownPk:sum(packetBytes) 0
attr interpolationmode none
attr source packetSentToLower
attr title "packets sent to lower layer, sum(packetBytes)"
statistic org.mobileHost[5].wlan[1].radio symbolErrorRate:histogram
field count 0
field mean nan
field stddev nan
field min nan
field max nan
field sum 0
field sqrsum 0
attr source symbolErrorRate
attr title "Symbol error rate, histogram"
bin	-inf	0
bin	0	0
bin	1	0
statistic org.mobileHost[5].wlan[1].radio bitErrorRate:histogram
field count 0
field mean nan
field stddev nan
field min nan
field max nan
field sum 0
field sqrsum 0
attr source bitErrorRate
attr title "Bit error rate, histogram"
bin	-inf	0
bin	0	0
bin	1	0
statistic org.mobileHost[5].wlan[1].radio packetErrorRate:histogram
field count 2
field mean 1
field stddev 0
field min 1
field max 1
field sum 2
field sqrsum 2
attr source packetErrorRate
attr title "Packet error rate, histogram"
bin	-inf	0
bin	0	0
bin	1	2
bin	2	0
statistic org.mobileHost[5].wlan[1].radio minSNIR:histogram
field count 2
field mean 12.757752770604
field stddev 0
field min 12.757752770604
field max 12.757752770604
field sum 25.515505541208
field sqrsum 325.52051151171
attr source minSNIR
attr title "Min SNIR, histogram"
bin	-inf	0
bin	12.24	0
bin	12.26	0
bin	12.28	0
bin	12.3	0
bin	12.32	0
bin	12.34	0
bin	12.36	0
bin	12.38	0
bin	12.4	0
bin	12.42	0
bin	12.44	0
bin	12.46	0
bin	12.48	0
bin	12.5	0
bin	12.52	0
bin	12.54	0
bin	12.56	0
bin	12.58	0
bin	12.6	0
bin	12.62	0
bin	12.64	0
bin	12.66	0
bin	12.68	0
bin	12.7	0
bin	12.72	0
bin	12.74	2
bin	12.76	0
bin	12.78	0
bin	12.8	0
bin	12.82	0
bin	12.84	0
bin	12.86	0
bin	12.88	0
bin	12.9	0
bin	12.92	0
bin	12.94	0
bin	12.96	0
bin	12.98	0
bin	13	0
bin	13.02	0
bin	13.04	0
bin	13.06	0
bin	13.08	0
bin	13.1	0
bin	13.12	0
bin	13.14	0
bin	13.16	0
bin	13.18	0
bin	13.2	0
bin	13.22	0
bin	13.24	0
bin	13.26	0
scalar org.mobileHost[5].wlan[1].radio transmissionState:count 0
attr interpolationmode sample-hold
attr source transmissionStateChanged
attr title "Radio transmission state, count"
scalar org.mobileHost[5].wlan[1].radio receptionState:count 6
attr interpolationmode sample-hold
attr source receptionStateChanged
attr title "Radio reception state, count"
scalar org.mobileHost[5].wlan[1].radio radioMode:count 2
attr interpolationmode sample-hold
attr source radioModeChanged
attr title "Radio mode, count"
statistic org.mobileHost[5].wlan[1].radio radioChannel:histogram
field count 1
field mean 2
field stddev nan
field min 2
field max 2
field sum 2
field sqrsum 4
attr interpolationmode sample-hold
attr source radioChannelChanged
attr title "Radio channel, histogram"
bin	-inf	0
bin	1	0
bin	2	1
bin	3	0
scalar org.mobileHost[6].networkLayer.arp sentReply:count 0
attr title "ARP replies sent, count"
scalar org.mobileHost[6].networkLayer.arp sentReq:count 0
attr title "ARP request sent, count"
scalar org.mobileHost[6].networkLayer.arp initiatedARPResolution:count 0
attr title "ARP initiated resolutions, count"
scalar org.mobileHost[6].networkLayer.arp failedARPResolution:count 0
attr title "ARP failed resolutions, count"
scalar org.mobileHost[6].networkLayer.arp completedARPResolution:count 0
attr title "ARP completed resolutions, count"
scalar org.mobileHost[6].lo0.lo droppedPkBitError:count 0
attr interpolationmode none
attr source dropPkBitError
attr title "packets dropped/bit error, count"
scalar org.mobileHost[6].lo0.lo droppedPkBitError:sum(packetBytes) 0
attr interpolationmode none
attr source dropPkBitError
attr title "packets dropped/bit error, sum(packetBytes)"
scalar org.mobileHost[6].lo0.lo rcvdPkFromHL:count 0
attr interpolationmode none
attr source packetReceivedFromUpper
attr title "packets received from higher layer, count"
scalar org.mobileHost[6].lo0.lo rcvdPkFromHL:sum(packetBytes) 0
attr interpolationmode none
attr source packetReceivedFromUpper
attr title "packets received from higher layer, sum(packetBytes)"
scalar org.mobileHost[6].lo0.lo passedUpPk:count 0
attr interpolationmode none
attr source packetSentToUpper
attr title "packets passed to higher layer, count"
scalar org.mobileHost[6].lo0.lo passedUpPk:sum(packetBytes) 0
attr interpolationmode none
attr source packetSentToUpper
attr title "packets passed to higher layer, sum(packetBytes)"
scalar org.mobileHost[6].wlan[0].mac.statistics numReceivedUnicast 0
scalar org.mobileHost[6].wlan[0].mac.statistics numReceivedBroadcast 0
scalar org.mobileHost[6].wlan[0].mac.statistics numReceivedMulticast 0
scalar org.mobileHost[6].wlan[0].mac.statistics numReceivedNotForUs 0
scalar org.mobileHost[6].wlan[0].mac.statistics numReceivedErroneous 0
scalar org.mobileHost[6].wlan[0].mac rcvdPkFromHL:count 0
attr interpolationmode none
attr source packetReceivedFromUpper
attr title "packets received from higher layer, count"
scalar org.mobileHost[6].wlan[0].mac rcvdPkFromHL:sum(packetBytes) 0
attr interpolationmode none
attr source packetReceivedFromUpper
attr title "packets received from higher layer, sum(packetBytes)"
scalar org.mobileHost[6].wlan[0].mac passedUpPk:count 0
attr interpolationmode none
attr source packetSentToUpper
attr title "packets passed to higher layer, count"
scalar org.mobileHost[6].wlan[0].mac passedUpPk:sum(packetBytes) 0
attr interpolationmode none
attr source packetSentToUpper
attr title "packets passed to higher layer, sum(packetBytes)"
scalar org.mobileHost[6].wlan[0].mac rcvdPkFromLL:count 0
attr interpolationmode none
attr source packetReceivedFromLower
attr title "packets received from lower layer, count"
scalar org.mobileHost[6].wlan[0].mac rcvdPkFromLL:sum(packetBytes) 0
attr interpolationmode none
attr source packetReceivedFromLower
attr title "packets received from lower layer, sum(packetBytes)"
scalar org.mobileHost[6].wlan[0].mac sentDownPk:count 0
attr interpolationmode none
attr source packetSentToLower
attr title "packets sent to lower layer, count"
scalar org.mobileHost[6].wlan[0].mac sentDownPk:sum(packetBytes) 0
attr interpolationmode none
attr source packetSentToLower
attr title "packets sent to lower layer, sum(packetBytes)"
statistic org.mobileHost[6].wlan[0].radio symbolErrorRate:histogram
field count 0
field mean nan
field stddev nan
field min nan
field max nan
field sum 0
field sqrsum 0
attr source symbolErrorRate
attr title "Symbol error rate, histogram"
bin	-inf	0
bin	0	0
bin	1	0
statistic org.mobileHost[6].wlan[0].radio bitErrorRate:histogram
field count 0
field mean nan
field stddev nan
field min nan
field max nan
field sum 0
field sqrsum 0
attr source bitErrorRate
attr title "Bit error rate, histogram"
bin	-inf	0
bin	0	0
bin	1	0
statistic org.mobileHost[6].wlan[0].radio packetErrorRate:histogram
field count 0
field mean nan
field stddev nan
field min nan
field max nan
field sum 0
field sqrsum 0
attr source packetErrorRate
attr title "Packet error rate, histogram"
bin	-inf	0
bin	0	0
bin	1	0
statistic org.mobileHost[6].wlan[0].radio minSNIR:histogram
field count 0
field mean nan
field stddev nan
field min nan
field max nan
field sum 0
field sqrsum 0
attr source minSNIR
attr title "Min SNIR, histogram"
bin	-inf	0
bin	0	0
bin	1	0
scalar org.mobileHost[6].wlan[0].radio transmissionState:count 0
attr interpolationmode sample-hold
attr source transmissionStateChanged
attr title "Radio transmission state, count"
scalar org.mobileHost[6].wlan[0].radio receptionState:count 1
attr interpolationmode sample-hold
attr source receptionStateChanged
attr title "Radio reception state, count"
scalar org.mobileHost[6].wlan[0].radio radioMode:count 2
attr interpolationmode sample-hold
attr source radioModeChanged
attr title "Radio mode, count"
statistic org.mobileHost[6].wlan[0].radio radioChannel:histogram
field count 1
field mean 1
field stddev nan
field min 1
field max 1
field sum 1
field sqrsum 1
attr interpolationmode sample-hold
attr source radioChannelChanged
attr title "Radio channel, histogram"
bin	-inf	0
bin	0	0
bin	1	1
bin	2	0
scalar org.mobileHost[6].wlan[1].mac.statistics numReceivedUnicast 0
scalar org.mobileHost[6].wlan[1].mac.statistics numReceivedBroadcast 0
scalar org.mobileHost[6].wlan[1].mac.statistics numReceivedMulticast 0
scalar org.mobileHost[6].wlan[1].mac.statistics numReceivedNotForUs 0
scalar org.mobileHost[6].wlan[1].mac.statistics numReceivedErroneous 0
scalar org.mobileHost[6].wlan[1].mac rcvdPkFromHL:count 0
attr interpolationmode none
attr source packetReceivedFromUpper
attr title "packets received from higher layer, count"
scalar org.mobileHost[6].wlan[1].mac rcvdPkFromHL:sum(packetBytes) 0
attr interpolationmode none
attr source packetReceivedFromUpper
attr title "packets received from higher layer, sum(packetBytes)"
scalar org.mobileHost[6].wlan[1].mac passedUpPk:count 0
attr interpolationmode none
attr source packetSentToUpper
attr title "packets passed to higher layer, count"
scalar org.mobileHost[6].wlan[1].mac passedUpPk:sum(packetBytes) 0
attr interpolationmode none
attr source packetSentToUpper
attr title "packets passed to higher layer, sum(packetBytes)"
scalar org.mobileHost[6].wlan[1].mac rcvdPkFromLL:count 2
attr interpolationmode none
attr source packetReceivedFromLower
attr title "packets received from lower layer, count"
scalar org.mobileHost[6].wlan[1].mac rcvdPkFromLL:sum(packetBytes) 2128
attr interpolationmode none
attr source packetReceivedFromLower
attr title "packets received from lower layer, sum(packetBytes)"
scalar org.mobileHost[6].wlan[1].mac sentDownPk:count 0
attr interpolationmode none
attr source packetSentToLower
attr title "packets sent to lower layer, count"
scalar org.mobileHost[6].wlan[1].mac sentDownPk:sum(packetBytes) 0
attr interpolationmode none
attr source packetSentToLower
attr title "packets sent to lower layer, sum(packetBytes)"
statistic org.mobileHost[6].wlan[1].radio symbolErrorRate:histogram
field count 0
field mean nan
field stddev nan
field min nan
field max nan
field sum 0
field sqrsum 0
attr source symbolErrorRate
attr title "Symbol error rate, histogram"
bin	-inf	0
bin	0	0
bin	1	0
statistic org.mobileHost[6].wlan[1].radio bitErrorRate:histogram
field count 0
field mean nan
field stddev nan
field min nan
field max nan
field sum 0
field sqrsum 0
attr source bitErrorRate
attr title "Bit error rate, histogram"
bin	-inf	0
bin	0	0
bin	1	0
statistic org.mobileHost[6].wlan[1].radio packetErrorRate:histogram
field count 2
field mean 1
field stddev 0
field min 1
field max 1
field sum 2
field sqrsum 2
attr source packetErrorRate
attr title "Packet error rate, histogram"
bin	-inf	0
bin	0	0
bin	1	2
bin	2	0
statistic org.mobileHost[6].wlan[1].radio minSNIR:histogram
field count 2
field mean 10.206202216483
field stddev 0
field min 10.206202216483
field max 10.206202216483
field sum 20.412404432966
field sqrsum 208.33312736749
attr source minSNIR
attr title "Min SNIR, histogram"
bin	-inf	0
bin	9.7	0
bin	9.72	0
bin	9.74	0
bin	9.76	0
bin	9.78	0
bin	9.8	0
bin	9.82	0
bin	9.84	0
bin	9.86	0
bin	9.88	0
bin	9.9	0
bin	9.92	0
bin	9.94	0
bin	9.96	0
bin	9.98	0
bin	10	0
bin	10.02	0
bin	10.04	0
bin	10.06	0
bin	10.08	0
bin	10.1	0
bin	10.12	0
bin	10.14	0
bin	10.16	0
bin	10.18	0
bin	10.2	2
bin	10.22	0
bin	10.24	0
bin	10.26	0
bin	10.28	0
bin	10.3	0
bin	10.32	0
bin	10.34	0
bin	10.36	0
bin	10.38	0
bin	10.4	0
bin	10.42	0
bin	10.44	0
bin	10.46	0
bin	10.48	0
bin	10.5	0
bin	10.52	0
bin	10.54	0
bin	10.56	0
bin	10.58	0
bin	10.6	0
bin	10.62	0
bin	10.64	0
bin	10.66	0
bin	10.68	0
bin	10.7	0
bin	10.72	0
scalar org.mobileHost[6].wlan[1].radio transmissionState:count 0
attr interpolationmode sample-hold
attr source transmissionStateChanged
attr title "Radio transmission state, count"
scalar org.mobileHost[6].wlan[1].radio receptionState:count 6
attr interpolationmode sample-hold
attr source receptionStateChanged
attr title "Radio reception state, count"
scalar org.mobileHost[6].wlan[1].radio radioMode:count 2
attr interpolationmode sample-hold
attr source radioModeChanged
attr title "Radio mode, count"
statistic org.mobileHost[6].wlan[1].radio radioChannel:histogram
field count 1
field mean 2
field stddev nan
field min 2
field max 2
field sum 2
field sqrsum 4
attr interpolationmode sample-hold
attr source radioChannelChanged
attr title "Radio channel, histogram"
bin	-inf	0
bin	1	0
bin	2	1
bin	3	0
scalar org.mobileHost[7].networkLayer.arp sentReply:count 0
attr title "ARP replies sent, count"
scalar org.mobileHost[7].networkLayer.arp sentReq:count 0
attr title "ARP request sent, count"
scalar org.mobileHost[7].networkLayer.arp initiatedARPResolution:count 0
attr title "ARP initiated resolutions, count"
scalar org.mobileHost[7].networkLayer.arp failedARPResolution:count 0
attr title "ARP failed resolutions, count"
scalar org.mobileHost[7].networkLayer.arp completedARPResolution:count 0
attr title "ARP completed resolutions, count"
scalar org.mobileHost[7].lo0.lo droppedPkBitError:count 0
attr interpolationmode none
attr source dropPkBitError
attr title "packets dropped/bit error, count"
scalar org.mobileHost[7].lo0.lo droppedPkBitError:sum(packetBytes) 0
attr interpolationmode none
attr source dropPkBitError
attr title "packets dropped/bit error, sum(packetBytes)"
scalar org.mobileHost[7].lo0.lo rcvdPkFromHL:count 0
attr interpolationmode none
attr source packetReceivedFromUpper
attr title "packets received from higher layer, count"
scalar org.mobileHost[7].lo0.lo rcvdPkFromHL:sum(packetBytes) 0
attr interpolationmode none
attr source packetReceivedFromUpper
attr title "packets received from higher layer, sum(packetBytes)"
scalar org.mobileHost[7].lo0.lo passedUpPk:count 0
attr interpolationmode none
attr source packetSentToUpper
attr title "packets passed to higher layer, count"
scalar org.mobileHost[7].lo0.lo passedUpPk:sum(packetBytes) 0
attr interpolationmode none
attr source packetSentToUpper
attr title "packets passed to higher layer, sum(packetBytes)"
scalar org.mobileHost[7].wlan[0].mac.statistics numReceivedUnicast 0
scalar org.mobileHost[7].wlan[0].mac.statistics numReceivedBroadcast 0
scalar org.mobileHost[7].wlan[0].mac.statistics numReceivedMulticast 0
scalar org.mobileHost[7].wlan[0].mac.statistics numReceivedNotForUs 0
scalar org.mobileHost[7].wlan[0].mac.statistics numReceivedErroneous 0
scalar org.mobileHost[7].wlan[0].mac rcvdPkFromHL:count 0
attr interpolationmode none
attr source packetReceivedFromUpper
attr title "packets received from higher layer, count"
scalar org.mobileHost[7].wlan[0].mac rcvdPkFromHL:sum(packetBytes) 0
attr interpolationmode none
attr source packetReceivedFromUpper
attr title "packets received from higher layer, sum(packetBytes)"
scalar org.mobileHost[7].wlan[0].mac passedUpPk:count 0
attr interpolationmode none
attr source packetSentToUpper
attr title "packets passed to higher layer, count"
scalar org.mobileHost[7].wlan[0].mac passedUpPk:sum(packetBytes) 0
attr interpolationmode none
attr source packetSentToUpper
attr title "packets passed to higher layer, sum(packetBytes)"
scalar org.mobileHost[7].wlan[0].mac rcvdPkFromLL:count 0
attr interpolationmode none
attr source packetReceivedFromLower
attr title "packets received from lower layer, count"
scalar org.mobileHost[7].wlan[0].mac rcvdPkFromLL:sum(packetBytes) 0
attr interpolationmode none
attr source packetReceivedFromLower
attr title "packets received from lower layer, sum(packetBytes)"
scalar org.mobileHost[7].wlan[0].mac sentDownPk:count 0
attr interpolationmode none
attr source packetSentToLower
attr title "packets sent to lower layer, count"
scalar org.mobileHost[7].wlan[0].mac sentDownPk:sum(packetBytes) 0
attr interpolationmode none
attr source packetSentToLower
attr title "packets sent to lower layer, sum(packetBytes)"
statistic org.mobileHost[7].wlan[0].radio symbolErrorRate:histogram
field count 0
field mean nan
field stddev nan
field min nan
field max nan
field sum 0
field sqrsum 0
attr source symbolErrorRate
attr title "Symbol error rate, histogram"
bin	-inf	0
bin	0	0
bin	1	0
statistic org.mobileHost[7].wlan[0].radio bitErrorRate:histogram
field count 0
field mean nan
field stddev nan
field min nan
field max nan
field sum 0
field sqrsum 0
attr source bitErrorRate
attr title "Bit error rate, histogram"
bin	-inf	0
bin	0	0
bin	1	0
statistic org.mobileHost[7].wlan[0].radio packetErrorRate:histogram
field count 0
field mean nan
field stddev nan
field min nan
field max nan
field sum 0
field sqrsum 0
attr source packetErrorRate
attr title "Packet error rate, histogram"
bin	-inf	0
bin	0	0
bin	1	0
statistic org.mobileHost[7].wlan[0].radio minSNIR:histogram
field count 0
field mean nan
field stddev nan
field min nan
field max nan
field sum 0
field sqrsum 0
attr source minSNIR
attr title "Min SNIR, histogram"
bin	-inf	0
bin	0	0
bin	1	0
scalar org.mobileHost[7].wlan[0].radio transmissionState:count 0
attr interpolationmode sample-hold
attr source transmissionStateChanged
attr title "Radio transmission state, count"
scalar org.mobileHost[7].wlan[0].radio receptionState:count 1
attr interpolationmode sample-hold
attr source receptionStateChanged
attr title "Radio reception state, count"
scalar org.mobileHost[7].wlan[0].radio radioMode:count 2
attr interpolationmode sample-hold
attr source radioModeChanged
attr title "Radio mode, count"
statistic org.mobileHost[7].wlan[0].radio radioChannel:histogram
field count 1
field mean 0
field stddev nan
field min 0
field max 0
field sum 0
field sqrsum 0
attr interpolationmode sample-hold
attr source radioChannelChanged
attr title "Radio channel, histogram"
bin	-inf	0
bin	-0.5	0
bin	-0.48	0
bin	-0.46	0
bin	-0.44	0
bin	-0.42	0
bin	-0.4	0
bin	-0.38	0
bin	-0.36	0
bin	-0.34	0
bin	-0.32	0
bin	-0.3	0
bin	-0.28	0
bin	-0.26	0
bin	-0.24	0
bin	-0.22	0
bin	-0.2	0
bin	-0.18	0
bin	-0.16	0
bin	-0.14	0
bin	-0.12	0
bin	-0.1	0
bin	-0.08	0
bin	-0.06	0
bin	-0.04	0
bin	-0.02	0
bin	0	1
bin	0.02	0
bin	0.04	0
bin	0.06	0
bin	0.08	0
bin	0.1	0
bin	0.12	0
bin	0.14	0
bin	0.16	0
bin	0.18	0
bin	0.2	0
bin	0.22	0
bin	0.24	0
bin	0.26	0
bin	0.28	0
bin	0.3	0
bin	0.32	0
bin	0.34	0
bin	0.36	0
bin	0.38	0
bin	0.4	0
bin	0.42	0
bin	0.44	0
bin	0.46	0
bin	0.48	0
bin	0.5	0
[...]
field count 1
field mean 2
field stddev nan
field min 2
field max 2
field sum 2
field sqrsum 4
attr interpolationmode sample-hold
attr source radioChannelChanged
attr title "Radio channel, histogram"
bin	-inf	0
bin	1	0
bin	2	1
bin	3	0
scalar org.mobileHost[14].networkLayer.arp sentReply:count 0
attr title "ARP replies sent, count"
scalar org.mobileHost[14].networkLayer.arp sentReq:count 0
attr title "ARP request sent, count"
scalar org.mobileHost[14].networkLayer.arp initiatedARPResolution:count 0
attr title "ARP initiated resolutions, count"
scalar org.mobileHost[14].networkLayer.arp failedARPResolution:count 0
attr title "ARP failed resolutions, count"
scalar org.mobileHost[14].networkLayer.arp completedARPResolution:count 0
attr title "ARP completed resolutions, count"
scalar org.mobileHost[14].lo0.lo droppedPkBitError:count 0
attr interpolationmode none
attr source dropPkBitError
attr title "packets dropped/bit error, count"
scalar org.mobileHost[14].lo0.lo droppedPkBitError:sum(packetBytes) 0
attr interpolationmode none
attr source dropPkBitError
attr title "packets dropped/bit error, sum(packetBytes)"
scalar org.mobileHost[14].lo0.lo rcvdPkFromHL:count 0
attr interpolationmode none
attr source packetReceivedFromUpper
attr title "packets received from higher layer, count"
scalar org.mobileHost[14].lo0.lo rcvdPkFromHL:sum(packetBytes) 0
attr interpolationmode none
attr source packetReceivedFromUpper
attr title "packets received from higher layer, sum(packetBytes)"
scalar org.mobileHost[14].lo0.lo passedUpPk:count 0
attr interpolationmode none
attr source packetSentToUpper
attr title "packets passed to higher layer, count"
scalar org.mobileHost[14].lo0.lo passedUpPk:sum(packetBytes) 0
attr interpolationmode none
attr source packetSentToUpper
attr title "packets passed to higher layer, sum(packetBytes)"
scalar org.mobileHost[14].wlan[0].mac.statistics numReceivedUnicast 0
scalar org.mobileHost[14].wlan[0].mac.statistics numReceivedBroadcast 0
scalar org.mobileHost[14].wlan[0].mac.statistics numReceivedMulticast 0
scalar org.mobileHost[14].wlan[0].mac.statistics numReceivedNotForUs 0
scalar org.mobileHost[14].wlan[0].mac.statistics numReceivedErroneous 0
scalar org.mobileHost[14].wlan[0].mac rcvdPkFromHL:count 0
attr interpolationmode none
attr source packetReceivedFromUpper
attr title "packets received from higher layer, count"
scalar org.mobileHost[14].wlan[0].mac rcvdPkFromHL:sum(packetBytes) 0
attr interpolationmode none
attr source packetReceivedFromUpper
attr title "packets received from higher layer, sum(packetBytes)"
scalar org.mobileHost[14].wlan[0].mac passedUpPk:count 0
attr interpolationmode none
attr source packetSentToUpper
attr title "packets passed to higher layer, count"
scalar org.mobileHost[14].wlan[0].mac passedUpPk:sum(packetBytes) 0
attr interpolationmode none
attr source packetSentToUpper
attr title "packets passed to higher layer, sum(packetBytes)"
scalar org.mobileHost[14].wlan[0].mac rcvdPkFromLL:count 0
attr interpolationmode none
attr source packetReceivedFromLower
attr title "packets received from lower layer, count"
scalar org.mobileHost[14].wlan[0].mac rcvdPkFromLL:sum(packetBytes) 0
attr interpolationmode none
attr source packetReceivedFromLower
attr title "packets received from lower layer, sum(packetBytes)"
scalar org.mobileHost[14].wlan[0].mac sentDownPk:count 0
attr interpolationmode none
attr source packetSentToLower
attr title "packets sent to lower layer, count"
scalar org.mobileHost[14].wlan[0].mac sentDownPk:sum(packetBytes) 0
attr interpolationmode none
attr source packetSentToLower
attr title "packets sent to lower layer, sum(packetBytes)"
statistic org.mobileHost[14].wlan[0].radio symbolErrorRate:histogram
field count 0
field mean nan
field stddev nan
field min nan
field max nan
field sum 0
field sqrsum 0
attr source symbolErrorRate
attr title "Symbol error rate, histogram"
bin	-inf	0
bin	0	0
bin	1	0
statistic org.mobileHost[14].wlan[0].radio bitErrorRate:histogram
field count 0
field mean nan
field stddev nan
field min nan
field max nan
field sum 0
field sqrsum 0
attr source bitErrorRate
attr title "Bit error rate, histogram"
bin	-inf	0
bin	0	0
bin	1	0
statistic org.mobileHost[14].wlan[0].radio packetErrorRate:histogram
field count 0
field mean nan
field stddev nan
field min nan
field max nan
field sum 0
field sqrsum 0
attr source packetErrorRate
attr title "Packet error rate, histogram"
bin	-inf	0
bin	0	0
bin	1	0
statistic org.mobileHost[14].wlan[0].radio minSNIR:histogram
field count 0
field mean nan
field stddev nan
field min nan
field max nan
field sum 0
field sqrsum 0
attr source minSNIR
attr title "Min SNIR, histogram"
bin	-inf	0
bin	0	0
bin	1	0
scalar org.mobileHost[14].wlan[0].radio transmissionState:count 0
attr interpolationmode sample-hold
attr source transmissionStateChanged
attr title "Radio transmission state, count"
scalar org.mobileHost[14].wlan[0].radio receptionState:count 1
attr interpolationmode sample-hold
attr source receptionStateChanged
attr title "Radio reception state, count"
scalar org.mobileHost[14].wlan[0].radio radioMode:count 2
attr interpolationmode sample-hold
attr source radioModeChanged
attr title "Radio mode, count"
statistic org.mobileHost[14].wlan[0].radio radioChannel:histogram
field count 1
field mean 1
field stddev nan
field min 1
field max 1
field sum 1
field sqrsum 1
attr interpolationmode sample-hold
attr source radioChannelChanged
attr title "Radio channel, histogram"
bin	-inf	0
bin	0	0
bin	1	1
bin	2	0
scalar org.mobileHost[14].wlan[1].mac.statistics numReceivedUnicast 0
scalar org.mobileHost[14].wlan[1].mac.statistics numReceivedBroadcast 0
scalar org.mobileHost[14].wlan[1].mac.statistics numReceivedMulticast 0
scalar org.mobileHost[14].wlan[1].mac.statistics numReceivedNotForUs 0
scalar org.mobileHost[14].wlan[1].mac.statistics numReceivedErroneous 0
scalar org.mobileHost[14].wlan[1].mac rcvdPkFromHL:count 0
attr interpolationmode none
attr source packetReceivedFromUpper
attr title "packets received from higher layer, count"
scalar org.mobileHost[14].wlan[1].mac rcvdPkFromHL:sum(packetBytes) 0
attr interpolationmode none
attr source packetReceivedFromUpper
attr title "packets received from higher layer, sum(packetBytes)"
scalar org.mobileHost[14].wlan[1].mac passedUpPk:count 0
attr interpolationmode none
attr source packetSentToUpper
attr title "packets passed to higher layer, count"
scalar org.mobileHost[14].wlan[1].mac passedUpPk:sum(packetBytes) 0
attr interpolationmode none
attr source packetSentToUpper
attr title "packets passed to higher layer, sum(packetBytes)"
scalar org.mobileHost[14].wlan[1].mac rcvdPkFromLL:count 2
attr interpolationmode none
attr source packetReceivedFromLower
attr title "packets received from lower layer, count"
scalar org.mobileHost[14].wlan[1].mac rcvdPkFromLL:sum(packetBytes) 2128
attr interpolationmode none
attr source packetReceivedFromLower
attr title "packets received from lower layer, sum(packetBytes)"
scalar org.mobileHost[14].wlan[1].mac sentDownPk:count 0
attr interpolationmode none
attr source packetSentToLower
attr title "packets sent to lower layer, count"
scalar org.mobileHost[14].wlan[1].mac sentDownPk:sum(packetBytes) 0
attr interpolationmode none
attr source packetSentToLower
attr title "packets sent to lower layer, sum(packetBytes)"
statistic org.mobileHost[14].wlan[1].radio symbolErrorRate:histogram
field count 0
field mean nan
field stddev nan
field min nan
field max nan
field sum 0
field sqrsum 0
attr source symbolErrorRate
attr title "Symbol error rate, histogram"
bin	-inf	0
bin	0	0
bin	1	0
statistic org.mobileHost[14].wlan[1].radio bitErrorRate:histogram
field count 0
field mean nan
field stddev nan
field min nan
field max nan
field sum 0
field sqrsum 0
attr source bitErrorRate
attr title "Bit error rate, histogram"
bin	-inf	0
bin	0	0
bin	1	0
statistic org.mobileHost[14].wlan[1].radio packetErrorRate:histogram
field count 2
field mean 1
field stddev 0
field min 1
field max 1
field sum 2
field sqrsum 2
attr source packetErrorRate
attr title "Packet error rate, histogram"
bin	-inf	0
bin	0	0
bin	1	2
bin	2	0
statistic org.mobileHost[14].wlan[1].radio minSNIR:histogram
field count 2
field mean 51.031011082416
field stddev 0
field min 51.031011082416
field max 51.031011082416
field sum 102.06202216483
field sqrsum 5208.3281841873
attr source minSNIR
attr title "Min SNIR, histogram"
bin	-inf	0
bin	50.52	0
bin	50.54	0
bin	50.56	0
bin	50.58	0
bin	50.6	0
bin	50.62	0
bin	50.64	0
bin	50.66	0
bin	50.68	0
bin	50.7	0
bin	50.72	0
bin	50.74	0
bin	50.76	0
bin	50.78	0
bin	50.8	0
bin	50.82	0
bin	50.84	0
bin	50.86	0
bin	50.88	0
bin	50.9	0
bin	50.92	0
bin	50.94	0
bin	50.96	0
bin	50.98	0
bin	51	0
bin	51.02	2
bin	51.04	0
bin	51.06	0
bin	51.08	0
bin	51.1	0
bin	51.12	0
bin	51.14	0
bin	51.16	0
bin	51.18	0
bin	51.2	0
bin	51.22	0
bin	51.24	0
bin	51.26	0
bin	51.28	0
bin	51.3	0
bin	51.32	0
bin	51.34	0
bin	51.36	0
bin	51.38	0
bin	51.4	0
bin	51.42	0
bin	51.44	0
bin	51.46	0
bin	51.48	0
bin	51.5	0
bin	51.52	0
bin	51.54	0
scalar org.mobileHost[14].wlan[1].radio transmissionState:count 0
attr interpolationmode sample-hold
attr source transmissionStateChanged
attr title "Radio transmission state, count"
scalar org.mobileHost[14].wlan[1].radio receptionState:count 6
attr interpolationmode sample-hold
attr source receptionStateChanged
attr title "Radio reception state, count"
scalar org.mobileHost[14].wlan[1].radio radioMode:count 2
attr interpolationmode sample-hold
attr source radioModeChanged
attr title "Radio mode, count"
statistic org.mobileHost[14].wlan[1].radio radioChannel:histogram
field count 1
field mean 2
field stddev nan
field min 2
field max 2
field sum 2
field sqrsum 4
attr interpolationmode sample-hold
attr source radioChannelChanged
attr title "Radio channel, histogram"
bin	-inf	0
bin	1	0
bin	2	1
bin	3	0
scalar org.mobileHost[15].networkLayer.arp sentReply:count 0
attr title "ARP replies sent, count"
scalar org.mobileHost[15].networkLayer.arp sentReq:count 0
attr title "ARP request sent, count"
scalar org.mobileHost[15].networkLayer.arp initiatedARPResolution:count 0
attr title "ARP initiated resolutions, count"
scalar org.mobileHost[15].networkLayer.arp failedARPResolution:count 0
attr title "ARP failed resolutions, count"
scalar org.mobileHost[15].networkLayer.arp completedARPResolution:count 0
attr title "ARP completed resolutions, count"
scalar org.mobileHost[15].lo0.lo droppedPkBitError:count 0
attr interpolationmode none
attr source dropPkBitError
attr title "packets dropped/bit error, count"
scalar org.mobileHost[15].lo0.lo droppedPkBitError:sum(packetBytes) 0
attr interpolationmode none
attr source dropPkBitError
attr title "packets dropped/bit error, sum(packetBytes)"
scalar org.mobileHost[15].lo0.lo rcvdPkFromHL:count 0
attr interpolationmode none
attr source packetReceivedFromUpper
attr title "packets received from higher layer, count"
scalar org.mobileHost[15].lo0.lo rcvdPkFromHL:sum(packetBytes) 0
attr interpolationmode none
attr source packetReceivedFromUpper
attr title "packets received from higher layer, sum(packetBytes)"
scalar org.mobileHost[15].lo0.lo passedUpPk:count 0
attr interpolationmode none
attr source packetSentToUpper
attr title "packets passed to higher layer, count"
scalar org.mobileHost[15].lo0.lo passedUpPk:sum(packetBytes) 0
attr interpolationmode none
attr source packetSentToUpper
attr title "packets passed to higher layer, sum(packetBytes)"
scalar org.mobileHost[15].wlan[0].mac.statistics numReceivedUnicast 0
scalar org.mobileHost[15].wlan[0].mac.statistics numReceivedBroadcast 0
scalar org.mobileHost[15].wlan[0].mac.statistics numReceivedMulticast 0
scalar org.mobileHost[15].wlan[0].mac.statistics numReceivedNotForUs 0
scalar org.mobileHost[15].wlan[0].mac.statistics numReceivedErroneous 0
scalar org.mobileHost[15].wlan[0].mac rcvdPkFromHL:count 0
attr interpolationmode none
attr source packetReceivedFromUpper
attr title "packets received from higher layer, count"
scalar org.mobileHost[15].wlan[0].mac rcvdPkFromHL:sum(packetBytes) 0
attr interpolationmode none
attr source packetReceivedFromUpper
attr title "packets received from higher layer, sum(packetBytes)"
scalar org.mobileHost[15].wlan[0].mac passedUpPk:count 0
attr interpolationmode none
attr source packetSentToUpper
attr title "packets passed to higher layer, count"
scalar org.mobileHost[15].wlan[0].mac passedUpPk:sum(packetBytes) 0
attr interpolationmode none
attr source packetSentToUpper
attr title "packets passed to higher layer, sum(packetBytes)"
scalar org.mobileHost[15].wlan[0].mac rcvdPkFromLL:count 0
attr interpolationmode none
attr source packetReceivedFromLower
attr title "packets received from lower layer, count"
scalar org.mobileHost[15].wlan[0].mac rcvdPkFromLL:sum(packetBytes) 0
attr interpolationmode none
attr source packetReceivedFromLower
attr title "packets received from lower layer, sum(packetBytes)"
scalar org.mobileHost[15].wlan[0].mac sentDownPk:count 0
attr interpolationmode none
attr source packetSentToLower
attr title "packets sent to lower layer, count"
scalar org.mobileHost[15].wlan[0].mac sentDownPk:sum(packetBytes) 0
attr interpolationmode none
attr source packetSentToLower
attr title "packets sent to lower layer, sum(packetBytes)"
statistic org.mobileHost[15].wlan[0].radio symbolErrorRate:histogram
field count 0
field mean nan
field stddev nan
field min nan
field max nan
field sum 0
field sqrsum 0
attr source symbolErrorRate
attr title "Symbol error rate, histogram"
bin	-inf	0
bin	0	0
bin	1	0
statistic org.mobileHost[15].wlan[0].radio bitErrorRate:histogram
field count 0
field mean nan
field stddev nan
field min nan
field max nan
field sum 0
field sqrsum 0
attr source bitErrorRate
attr title "Bit error rate, histogram"
bin	-inf	0
bin	0	0
bin	1	0
statistic org.mobileHost[15].wlan[0].radio packetErrorRate:histogram
field count 0
field mean nan
field stddev nan
field min nan
field max nan
field sum 0
field sqrsum 0
attr source packetErrorRate
attr title "Packet error rate, histogram"
bin	-inf	0
bin	0	0
bin	1	0
statistic org.mobileHost[15].wlan[0].radio minSNIR:histogram
field count 0
field mean nan
field stddev nan
field min nan
field max nan
field sum 0
field sqrsum 0
attr source minSNIR
attr title "Min SNIR, histogram"
bin	-inf	0
bin	0	0
bin	1	0
scalar org.mobileHost[15].wlan[0].radio transmissionState:count 0
attr interpolationmode sample-hold
attr source transmissionStateChanged
attr title "Radio transmission state, count"
scalar org.mobileHost[15].wlan[0].radio receptionState:count 1
attr interpolationmode sample-hold
attr source receptionStateChanged
attr title "Radio reception state, count"
scalar org.mobileHost[15].wlan[0].radio radioMode:count 2
attr interpolationmode sample-hold
attr source radioModeChanged
attr title "Radio mode, count"
statistic org.mobileHost[15].wlan[0].radio radioChannel:histogram
field count 1
field mean 0
field stddev nan
field min 0
field max 0
field sum 0
field sqrsum 0
attr interpolationmode sample-hold
attr source radioChannelChanged
attr title "Radio channel, histogram"
bin	-inf	0
bin	-0.5	0
bin	-0.48	0
bin	-0.46	0
bin	-0.44	0
bin	-0.42	0
bin	-0.4	0
bin	-0.38	0
bin	-0.36	0
bin	-0.34	0
bin	-0.32	0
bin	-0.3	0
bin	-0.28	0
bin	-0.26	0
bin	-0.24	0
bin	-0.22	0
bin	-0.2	0
bin	-0.18	0
bin	-0.16	0
bin	-0.14	0
bin	-0.12	0
bin	-0.1	0
bin	-0.08	0
bin	-0.06	0
bin	-0.04	0
bin	-0.02	0
bin	0	1
bin	0.02	0
bin	0.04	0
bin	0.06	0
bin	0.08	0
bin	0.1	0
bin	0.12	0
bin	0.14	0
bin	0.16	0
bin	0.18	0
bin	0.2	0
bin	0.22	0
bin	0.24	0
bin	0.26	0
bin	0.28	0
bin	0.3	0
bin	0.32	0
bin	0.34	0
bin	0.36	0
bin	0.38	0
bin	0.4	0
bin	0.42	0
bin	0.44	0
bin	0.46	0
bin	0.48	0
bin	0.5	0
scalar org.mobileHost[15].wlan[1].mac.statistics numReceivedUnicast 0
scalar org.mobileHost[15].wlan[1].mac.statistics numReceivedBroadcast 0
scalar org.mobileHost[15].wlan[1].mac.statistics numReceivedMulticast 0
scalar org.mobileHost[15].wlan[1].mac.statistics numReceivedNotForUs 0
scalar org.mobileHost[15].wlan[1].mac.statistics numReceivedErroneous 0
scalar org.mobileHost[15].wlan[1].mac rcvdPkFromHL:count 0
attr interpolationmode none
attr source packetReceivedFromUpper
attr title "packets received from higher layer, count"
scalar org.mobileHost[15].wlan[1].mac rcvdPkFromHL:sum(packetBytes) 0
attr interpolationmode none
attr source packetReceivedFromUpper
attr title "packets received from higher layer, sum(packetBytes)"
scalar org.mobileHost[15].wlan[1].mac passedUpPk:count 0
attr interpolationmode none
attr source packetSentToUpper
attr title "packets passed to higher layer, count"
scalar org.mobileHost[15].wlan[1].mac passedUpPk:sum(packetBytes) 0
attr interpolationmode none
attr source packetSentToUpper
attr title "packets passed to higher layer, sum(packetBytes)"
scalar org.mobileHost[15].wlan[1].mac rcvdPkFromLL:count 2
attr interpolationmode none
attr source packetReceivedFromLower
attr title "packets received from lower layer, count"
scalar org.mobileHost[15].wlan[1].mac rcvdPkFromLL:sum(packetBytes) 2128
attr interpolationmode none
attr source packetReceivedFromLower
attr title "packets received from lower layer, sum(packetBytes)"
scalar org.mobileHost[15].wlan[1].mac sentDownPk:count 0
attr interpolationmode none
attr source packetSentToLower
attr title "packets sent to lower layer, count"
scalar org.mobileHost[15].wlan[1].mac sentDownPk:sum(packetBytes) 0
attr interpolationmode none
attr source packetSentToLower
attr title "packets sent to lower layer, sum(packetBytes)"
statistic org.mobileHost[15].wlan[1].radio symbolErrorRate:histogram
field count 0
field mean nan
field stddev nan
field min nan
field max nan
field sum 0
field sqrsum 0
attr source symbolErrorRate
attr title "Symbol error rate, histogram"
bin	-inf	0
bin	0	0
bin	1	0
statistic org.mobileHost[15].wlan[1].radio bitErrorRate:histogram
field count 0
field mean nan
field stddev nan
field min nan
field max nan
field sum 0
field sqrsum 0
attr source bitErrorRate
attr title "Bit error rate, histogram"
bin	-inf	0
bin	0	0
bin	1	0
statistic org.mobileHost[15].wlan[1].radio packetErrorRate:histogram
field count 2
field mean 1
field stddev 0
field min 1
field max 1
field sum 2
field sqrsum 2
attr source packetErrorRate
attr title "Packet error rate, histogram"
bin	-inf	0
bin	0	0
bin	1	2
bin	2	0
statistic org.mobileHost[15].wlan[1].radio minSNIR:histogram
field count 2
field mean 12.757752770604
field stddev 0
field min 12.757752770604
field max 12.757752770604
field sum 25.515505541208
field sqrsum 325.52051151171
attr source minSNIR
attr title "Min SNIR, histogram"
bin	-inf	0
bin	12.24	0
bin	12.26	0
bin	12.28	0
bin	12.3	0
bin	12.32	0
bin	12.34	0
bin	12.36	0
bin	12.38	0
bin	12.4	0
bin	12.42	0
bin	12.44	0
bin	12.46	0
bin	12.48	0
bin	12.5	0
bin	12.52	0
bin	12.54	0
bin	12.56	0
bin	12.58	0
bin	12.6	0
bin	12.62	0
bin	12.64	0
bin	12.66	0
bin	12.68	0
bin	12.7	0
bin	12.72	0
bin	12.74	2
bin	12.76	0
bin	12.78	0
bin	12.8	0
bin	12.82	0
bin	12.84	0
bin	12.86	0
bin	12.88	0
bin	12.9	0
bin	12.92	0
bin	12.94	0
bin	12.96	0
bin	12.98	0
bin	13	0
bin	13.02	0
bin	13.04	0
bin	13.06	0
bin	13.08	0
bin	13.1	0
bin	13.12	0
bin	13.14	0
bin	13.16	0
bin	13.18	0
bin	13.2	0
bin	13.22	0
bin	13.24	0
bin	13.26	0
scalar org.mobileHost[15].wlan[1].radio transmissionState:count 0
attr interpolationmode sample-hold
attr source transmissionStateChanged
attr title "Radio transmission state, count"
scalar org.mobileHost[15].wlan[1].radio receptionState:count 6
attr interpolationmode sample-hold
attr source receptionStateChanged
attr title "Radio reception state, count"
scalar org.mobileHost[15].wlan[1].radio radioMode:count 2
attr interpolationmode sample-hold
attr source radioModeChanged
attr title "Radio mode, count"
statistic org.mobileHost[15].wlan[1].radio radioChannel:histogram
field count 1
field mean 2
field stddev nan
field min 2
field max 2
field sum 2
field sqrsum 4
attr interpolationmode sample-hold
attr source radioChannelChanged
attr title "Radio channel, histogram"
bin	-inf	0
bin	1	0
bin	2	1
bin	3	0

