version 2
run SingleRadio-0-20180816-15:20:40-7920
attr configname SingleRadio
attr datetime 20180816-15:20:40
attr experiment SingleRadio
attr inifile omnetpp.ini
attr iterationvars ""
attr iterationvarsf ""
attr measurement ""
attr network org
attr processid 7920
attr repetition 0
attr replication #0
attr resultdir results
attr runnumber 0
attr seedset 0
param *.numHosts 16
param **.mobileHost[*].mobilityType "\"StaticGridMobility\""
param **.mobileHost[*].mobility.numHosts 16
param **.mobileHost[*].mobility.marginX 50m
param **.mobileHost[*].mobility.marginY 50m
param **.wlan[*].bitrate 54Mbps
param **.mac.maxQueueSize 15
param *.radiomedium.typename "\"ApskScalarRadioMedium\""
param *.radioMedium.backgroundNoise.power -90dBm
param *.radioMedium.mediumLimitCache.carrierFrequency 2GHz
param **.wlan[0].radio.typename "\"ApskScalarRadio\""
param **.wlan[0].radio.carrierFrequency 2.412GHz
param **.wlan[0].radio.bandwidth 2MHz
param **.wlan[0].radio.transmitter.power 1mW
param **.wlan[0].radio.transmitter.preambleDuration 10us
param **.wlan[0].radio.transmitter.headerLength 0b
param **.wlan[0].radio.receiver.sensitivity -85dBm
param **.wlan[0].radio.receiver.energyDetection -85dBm
param **.wlan[0].radio.receiver.snirThreshold 4dB
param **.wlan[0].radio.displayCommunicationRange true
param *.visualizer.mediumVisualizer.displaySignals true
param *.visualizer.physicalLinkVisualizer.displayLinks true
param **.mobileHost[0].numPingApps 1
param **.mobileHost[0].pingApp[0].destAddr "\"10.0.0.31\""
param **.mobileHost[0].pingApp[0].startTime 0s
param **.pingApp[*].printPing true
param **.mobileHost[*].routingProtocol "\"OLSR_ETX\""
param **.networkConfigurator.config "xml(\"<config><interface hosts='*' address='10.0.0.x' netmask='255.255.255.0'/></config>\")"
param **.constraintAreaMinX 0m
param **.constraintAreaMinY 0m
param **.constraintAreaMaxX 800m
param **.constraintAreaMaxY 800m
param **.radioMedium.pMax 2mW

scalar org.mobileHost[0].mobility x 137.5
scalar org.mobileHost[0].mobility y 137.5
scalar org.mobileHost[0].mobility z 0
scalar org.mobileHost[1].mobility x 312.5
scalar org.mobileHost[1].mobility y 137.5
scalar org.mobileHost[1].mobility z 0
scalar org.mobileHost[2].mobility x 487.5
scalar org.mobileHost[2].mobility y 137.5
scalar org.mobileHost[2].mobility z 0
scalar org.mobileHost[3].mobility x 662.5
scalar org.mobileHost[3].mobility y 137.5
scalar org.mobileHost[3].mobility z 0
scalar org.mobileHost[4].mobility x 137.5
scalar org.mobileHost[4].mobility y 312.5
scalar org.mobileHost[4].mobility z 0
scalar org.mobileHost[5].mobility x 312.5
scalar org.mobileHost[5].mobility y 312.5
scalar org.mobileHost[5].mobility z 0
scalar org.mobileHost[6].mobility x 487.5
scalar org.mobileHost[6].mobility y 312.5
scalar org.mobileHost[6].mobility z 0
scalar org.mobileHost[7].mobility x 662.5
scalar org.mobileHost[7].mobility y 312.5
scalar org.mobileHost[7].mobility z 0
scalar org.mobileHost[8].mobility x 137.5
scalar org.mobileHost[8].mobility y 487.5
scalar org.mobileHost[8].mobility z 0
scalar org.mobileHost[9].mobility x 312.5
scalar org.mobileHost[9].mobility y 487.5
scalar org.mobileHost[9].mobility z 0
scalar org.mobileHost[10].mobility x 487.5
scalar org.mobileHost[10].mobility y 487.5
scalar org.mobileHost[10].mobility z 0
scalar org.mobileHost[11].mobility x 662.5
scalar org.mobileHost[11].mobility y 487.5
scalar org.mobileHost[11].mobility z 0
scalar org.mobileHost[12].mobility x 137.5
scalar org.mobileHost[12].mobility y 662.5
scalar org.mobileHost[12].mobility z 0
scalar org.mobileHost[13].mobility x 312.5
scalar org.mobileHost[13].mobility y 662.5
scalar org.mobileHost[13].mobility z 0
scalar org.mobileHost[14].mobility x 487.5
scalar org.mobileHost[14].mobility y 662.5
scalar org.mobileHost[14].mobility z 0
scalar org.mobileHost[15].mobility x 662.5
scalar org.mobileHost[15].mobility y 662.5
scalar org.mobileHost[15].mobility z 0
scalar org.radioMedium.propagation "Arrival computation count" 2475
scalar org.radioMedium "transmission count" 165
scalar org.radioMedium "radio frame send count" 2475
scalar org.radioMedium "reception computation count" 2475
scalar org.radioMedium "interference computation count" 7598
scalar org.radioMedium "reception decision computation count" 493
scalar org.radioMedium "listening decision computation count" 4631
scalar org.radioMedium "reception cache hit" 78.316103031365
attr unit %
scalar org.radioMedium "interference cache hit" 66.666666666667
attr unit %
scalar org.radioMedium "noise cache hit" 0
attr unit %
scalar org.radioMedium "snir cache hit" 50
attr unit %
scalar org.radioMedium "reception decision cache hit" 50
attr unit %
scalar org.radioMedium "reception result cache hit" 0
attr unit %
scalar org.mobileHost[0].networkLayer.arp sentReply:count 0
attr title "ARP replies sent, count"
scalar org.mobileHost[0].networkLayer.arp sentReq:count 0
attr title "ARP request sent, count"
scalar org.mobileHost[0].networkLayer.arp initiatedARPResolution:count 0
attr title "ARP initiated resolutions, count"
scalar org.mobileHost[0].networkLayer.arp failedARPResolution:count 0
attr title "ARP failed resolutions, count"
scalar org.mobileHost[0].networkLayer.arp completedARPResolution:count 0
attr title "ARP completed resolutions, count"
scalar org.mobileHost[0].lo0.lo droppedPkBitError:count 0
attr interpolationmode none
attr source dropPkBitError
attr title "packets dropped/bit error, count"
scalar org.mobileHost[0].lo0.lo droppedPkBitError:sum(packetBytes) 0
attr interpolationmode none
attr source dropPkBitError
attr title "packets dropped/bit error, sum(packetBytes)"
scalar org.mobileHost[0].lo0.lo rcvdPkFromHL:count 0
attr interpolationmode none
attr source packetReceivedFromUpper
attr title "packets received from higher layer, count"
scalar org.mobileHost[0].lo0.lo rcvdPkFromHL:sum(packetBytes) 0
attr interpolationmode none
attr source packetReceivedFromUpper
attr title "packets received from higher layer, sum(packetBytes)"
scalar org.mobileHost[0].lo0.lo passedUpPk:count 0
attr interpolationmode none
attr source packetSentToUpper
attr title "packets passed to higher layer, count"
scalar org.mobileHost[0].lo0.lo passedUpPk:sum(packetBytes) 0
attr interpolationmode none
attr source packetSentToUpper
attr title "packets passed to higher layer, sum(packetBytes)"
scalar org.mobileHost[0].wlan[0].mac.statistics numReceivedUnicast 0
scalar org.mobileHost[0].wlan[0].mac.statistics numReceivedBroadcast 0
scalar org.mobileHost[0].wlan[0].mac.statistics numReceivedMulticast 0
scalar org.mobileHost[0].wlan[0].mac.statistics numReceivedNotForUs 0
scalar org.mobileHost[0].wlan[0].mac.statistics numReceivedErroneous 0
scalar org.mobileHost[0].wlan[0].mac rcvdPkFromHL:count 10
attr interpolationmode none
attr source packetReceivedFromUpper
attr title "packets received from higher layer, count"
scalar org.mobileHost[0].wlan[0].mac rcvdPkFromHL:sum(packetBytes) 10640
attr interpolationmode none
attr source packetReceivedFromUpper
attr title "packets received from higher layer, sum(packetBytes)"
scalar org.mobileHost[0].wlan[0].mac passedUpPk:count 0
attr interpolationmode none
attr source packetSentToUpper
attr title "packets passed to higher layer, count"
scalar org.mobileHost[0].wlan[0].mac passedUpPk:sum(packetBytes) 0
attr interpolationmode none
attr source packetSentToUpper
attr title "packets passed to higher layer, sum(packetBytes)"
scalar org.mobileHost[0].wlan[0].mac rcvdPkFromLL:count 22
attr interpolationmode none
attr source packetReceivedFromLower
attr title "packets received from lower layer, count"
scalar org.mobileHost[0].wlan[0].mac rcvdPkFromLL:sum(packetBytes) 23408
attr interpolationmode none
attr source packetReceivedFromLower
attr title "packets received from lower layer, sum(packetBytes)"
scalar org.mobileHost[0].wlan[0].mac sentDownPk:count 10
attr interpolationmode none
attr source packetSentToLower
attr title "packets sent to lower layer, count"
scalar org.mobileHost[0].wlan[0].mac sentDownPk:sum(packetBytes) 10640
attr interpolationmode none
attr source packetSentToLower
attr title "packets sent to lower layer, sum(packetBytes)"
statistic org.mobileHost[0].wlan[0].radio symbolErrorRate:histogram
field count 0
field mean nan
field stddev nan
field min nan
field max nan
field sum 0
field sqrsum 0
attr source symbolErrorRate
attr title "Symbol error rate, histogram"
bin	-inf	0
bin	0	0
bin	1	0
statistic org.mobileHost[0].wlan[0].radio bitErrorRate:histogram
field count 0
field mean nan
field stddev nan
field min nan
field max nan
field sum 0
field sqrsum 0
attr source bitErrorRate
attr title "Bit error rate, histogram"
bin	-inf	0
bin	0	0
bin	1	0
statistic org.mobileHost[0].wlan[0].radio packetErrorRate:histogram
field count 22
field mean 1
field stddev 0
field min 1
field max 1
field sum 22
field sqrsum 22
attr source packetErrorRate
attr title "Packet error rate, histogram"
bin	-inf	0
bin	0	0
bin	1	22
bin	2	0
statistic org.mobileHost[0].wlan[0].radio minSNIR:histogram
field count 22
field mean 3.1944123299655
field stddev 0
field min 3.1944123299655
field max 3.1944123299655
field sum 70.277071259241
field sqrsum 224.49394294438
attr source minSNIR
attr title "Min SNIR, histogram"
bin	-inf	0
bin	2.68	0
bin	2.7	0
bin	2.72	0
bin	2.74	0
bin	2.76	0
bin	2.78	0
bin	2.8	0
bin	2.82	0
bin	2.84	0
bin	2.86	0
bin	2.88	0
bin	2.9	0
bin	2.92	0
bin	2.94	0
bin	2.96	0
bin	2.98	0
bin	3	0
bin	3.02	0
bin	3.04	0
bin	3.06	0
bin	3.08	0
bin	3.1	0
bin	3.12	0
bin	3.14	0
bin	3.16	0
bin	3.18	22
bin	3.2	0
bin	3.22	0
bin	3.24	0
bin	3.26	0
bin	3.28	0
bin	3.3	0
bin	3.32	0
bin	3.34	0
bin	3.36	0
bin	3.38	0
bin	3.4	0
bin	3.42	0
bin	3.44	0
bin	3.46	0
bin	3.48	0
bin	3.5	0
bin	3.52	0
bin	3.54	0
bin	3.56	0
bin	3.58	0
bin	3.6	0
bin	3.62	0
bin	3.64	0
bin	3.66	0
bin	3.68	0
bin	3.7	0
scalar org.mobileHost[0].wlan[0].radio transmissionState:count 40
attr interpolationmode sample-hold
attr source transmissionStateChanged
attr title "Radio transmission state, count"
scalar org.mobileHost[0].wlan[0].radio receptionState:count 65
attr interpolationmode sample-hold
attr source receptionStateChanged
attr title "Radio reception state, count"
scalar org.mobileHost[0].wlan[0].radio radioMode:count 22
attr interpolationmode sample-hold
attr source radioModeChanged
attr title "Radio mode, count"
statistic org.mobileHost[0].wlan[0].radio radioChannel:histogram
field count 1
field mean 0
field stddev nan
field min 0
field max 0
field sum 0
field sqrsum 0
attr interpolationmode sample-hold
attr source radioChannelChanged
attr title "Radio channel, histogram"
bin	-inf	0
bin	-0.5	0
bin	-0.48	0
bin	-0.46	0
bin	-0.44	0
bin	-0.42	0
bin	-0.4	0
bin	-0.38	0
bin	-0.36	0
bin	-0.34	0
bin	-0.32	0
bin	-0.3	0
bin	-0.28	0
bin	-0.26	0
bin	-0.24	0
bin	-0.22	0
bin	-0.2	0
bin	-0.18	0
bin	-0.16	0
bin	-0.14	0
bin	-0.12	0
bin	-0.1	0
bin	-0.08	0
bin	-0.06	0
bin	-0.04	0
bin	-0.02	0
bin	0	1
bin	0.02	0
bin	0.04	0
bin	0.06	0
bin	0.08	0
bin	0.1	0
bin	0.12	0
bin	0.14	0
bin	0.16	0
bin	0.18	0
bin	0.2	0
bin	0.22	0
bin	0.24	0
bin	0.26	0
bin	0.28	0
bin	0.3	0
bin	0.32	0
bin	0.34	0
bin	0.36	0
bin	0.38	0
bin	0.4	0
bin	0.42	0
bin	0.44	0
bin	0.46	0
bin	0.48	0
bin	0.5	0
scalar org.mobileHost[0].pingApp[0] "Pings sent" 9
scalar org.mobileHost[0].pingApp[0] "ping loss rate (%)" 100
scalar org.mobileHost[0].pingApp[0] "ping out-of-order rate (%)" 0
scalar org.mobileHost[0].pingApp[0] pingRxSeq:count 0
attr interpolationmode none
attr title "ping rx seq, count"
scalar org.mobileHost[0].pingApp[0] pingTxSeq:count 9
attr interpolationmode none
attr title "ping tx seq, count"
scalar org.mobileHost[0].pingApp[0] numOutOfOrderArrivals:last nan
attr interpolationmode none
attr title "ping out-of-order arrivals, last"
scalar org.mobileHost[0].pingApp[0] numLost:last nan
attr interpolationmode none
attr title "pings lost, last"
statistic org.mobileHost[0].pingApp[0] rtt:histogram
field count 0
field mean nan
field stddev nan
field min nan
field max nan
field sum 0
field sqrsum 0
attr interpolationmode none
attr title "ping round-trip time, histogram"
attr unit s
bin	-inf	0
bin	0	0
bin	1	0
scalar org.mobileHost[1].networkLayer.arp sentReply:count 0
attr title "ARP replies sent, count"
scalar org.mobileHost[1].networkLayer.arp sentReq:count 0
attr title "ARP request sent, count"
scalar org.mobileHost[1].networkLayer.arp initiatedARPResolution:count 0
attr title "ARP initiated resolutions, count"
scalar org.mobileHost[1].networkLayer.arp failedARPResolution:count 0
attr title "ARP failed resolutions, count"
scalar org.mobileHost[1].networkLayer.arp completedARPResolution:count 0
attr title "ARP completed resolutions, count"
scalar org.mobileHost[1].lo0.lo droppedPkBitError:count 0
attr interpolationmode none
attr source dropPkBitError
attr title "packets dropped/bit error, count"
scalar org.mobileHost[1].lo0.lo droppedPkBitError:sum(packetBytes) 0
attr interpolationmode none
attr source dropPkBitError
attr title "packets dropped/bit error, sum(packetBytes)"
scalar org.mobileHost[1].lo0.lo rcvdPkFromHL:count 0
attr interpolationmode none
attr source packetReceivedFromUpper
attr title "packets received from higher layer, count"
scalar org.mobileHost[1].lo0.lo rcvdPkFromHL:sum(packetBytes) 0
attr interpolationmode none
attr source packetReceivedFromUpper
attr title "packets received from higher layer, sum(packetBytes)"
scalar org.mobileHost[1].lo0.lo passedUpPk:count 0
attr interpolationmode none
attr source packetSentToUpper
attr title "packets passed to higher layer, count"
scalar org.mobileHost[1].lo0.lo passedUpPk:sum(packetBytes) 0
attr interpolationmode none
attr source packetSentToUpper
attr title "packets passed to higher layer, sum(packetBytes)"
scalar org.mobileHost[1].wlan[0].mac.statistics numReceivedUnicast 0
scalar org.mobileHost[1].wlan[0].mac.statistics numReceivedBroadcast 0
scalar org.mobileHost[1].wlan[0].mac.statistics numReceivedMulticast 0
scalar org.mobileHost[1].wlan[0].mac.statistics numReceivedNotForUs 0
scalar org.mobileHost[1].wlan[0].mac.statistics numReceivedErroneous 0
scalar org.mobileHost[1].wlan[0].mac rcvdPkFromHL:count 12
attr interpolationmode none
attr source packetReceivedFromUpper
attr title "packets received from higher layer, count"
scalar org.mobileHost[1].wlan[0].mac rcvdPkFromHL:sum(packetBytes) 12768
attr interpolationmode none
attr source packetReceivedFromUpper
attr title "packets received from higher layer, sum(packetBytes)"
scalar org.mobileHost[1].wlan[0].mac passedUpPk:count 0
attr interpolationmode none
attr source packetSentToUpper
attr title "packets passed to higher layer, count"
scalar org.mobileHost[1].wlan[0].mac passedUpPk:sum(packetBytes) 0
attr interpolationmode none
attr source packetSentToUpper
attr title "packets passed to higher layer, sum(packetBytes)"
scalar org.mobileHost[1].wlan[0].mac rcvdPkFromLL:count 32
attr interpolationmode none
attr source packetReceivedFromLower
attr title "packets received from lower layer, count"
scalar org.mobileHost[1].wlan[0].mac rcvdPkFromLL:sum(packetBytes) 34048
attr interpolationmode none
attr source packetReceivedFromLower
attr title "packets received from lower layer, sum(packetBytes)"
scalar org.mobileHost[1].wlan[0].mac sentDownPk:count 12
attr interpolationmode none
attr source packetSentToLower
attr title "packets sent to lower layer, count"
scalar org.mobileHost[1].wlan[0].mac sentDownPk:sum(packetBytes) 12768
attr interpolationmode none
attr source packetSentToLower
attr title "packets sent to lower layer, sum(packetBytes)"
statistic org.mobileHost[1].wlan[0].radio symbolErrorRate:histogram
field count 0
field mean nan
field stddev nan
field min nan
field max nan
field sum 0
field sqrsum 0
attr source symbolErrorRate
attr title "Symbol error rate, histogram"
bin	-inf	0
bin	0	0
bin	1	0
statistic org.mobileHost[1].wlan[0].radio bitErrorRate:histogram
field count 0
field mean nan
field stddev nan
field min nan
field max nan
field sum 0
field sqrsum 0
attr source bitErrorRate
attr title "Bit error rate, histogram"
bin	-inf	0
bin	0	0
bin	1	0
statistic org.mobileHost[1].wlan[0].radio packetErrorRate:histogram
field count 32
field mean 1
field stddev 0
field min 1
field max 1
field sum 32
field sqrsum 32
attr source packetErrorRate
attr title "Packet error rate, histogram"
bin	-inf	0
bin	0	0
bin	1	32
bin	2	0
statistic org.mobileHost[1].wlan[0].radio minSNIR:histogram
field count 32
field mean 3.1944123299655
field stddev 7.4168564896376e-008
field min 3.1944123299655
field max 3.1944123299655
field sum 102.2211945589
field sqrsum 326.53664428274
attr source minSNIR
attr title "Min SNIR, histogram"
bin	-inf	0
bin	2.68	0
bin	2.7	0
bin	2.72	0
bin	2.74	0
bin	2.76	0
bin	2.78	0
bin	2.8	0
bin	2.82	0
bin	2.84	0
bin	2.86	0
bin	2.88	0
bin	2.9	0
bin	2.92	0
bin	2.94	0
bin	2.96	0
bin	2.98	0
bin	3	0
bin	3.02	0
bin	3.04	0
bin	3.06	0
bin	3.08	0
bin	3.1	0
bin	3.12	0
bin	3.14	0
bin	3.16	0
bin	3.18	32
bin	3.2	0
bin	3.22	0
bin	3.24	0
bin	3.26	0
bin	3.28	0
bin	3.3	0
bin	3.32	0
bin	3.34	0
bin	3.36	0
bin	3.38	0
bin	3.4	0
bin	3.42	0
bin	3.44	0
bin	3.46	0
bin	3.48	0
bin	3.5	0
bin	3.52	0
bin	3.54	0
bin	3.56	0
bin	3.58	0
bin	3.6	0
bin	3.62	0
bin	3.64	0
bin	3.66	0
bin	3.68	0
bin	3.7	0
scalar org.mobileHost[1].wlan[0].radio transmissionState:count 48
attr interpolationmode sample-hold
attr source transmissionStateChanged
attr title "Radio transmission state, count"
scalar org.mobileHost[1].wlan[0].radio receptionState:count 89
attr interpolationmode sample-hold
attr source receptionStateChanged
attr title "Radio reception state, count"
scalar org.mobileHost[1].wlan[0].radio radioMode:count 26
attr interpolationmode sample-hold
attr source radioModeChanged
attr title "Radio mode, count"
statistic org.mobileHost[1].wlan[0].radio radioChannel:histogram
field count 1
field mean 0
field stddev nan
field min 0
field max 0
field sum 0
field sqrsum 0
attr interpolationmode sample-hold
attr source radioChannelChanged
attr title "Radio channel, histogram"
bin	-inf	0
bin	-0.5	0
bin	-0.48	0
bin	-0.46	0
bin	-0.44	0
bin	-0.42	0
bin	-0.4	0
bin	-0.38	0
bin	-0.36	0
bin	-0.34	0
bin	-0.32	0
bin	-0.3	0
bin	-0.28	0
bin	-0.26	0
bin	-0.24	0
bin	-0.22	0
bin	-0.2	0
bin	-0.18	0
bin	-0.16	0
bin	-0.14	0
bin	-0.12	0
bin	-0.1	0
bin	-0.08	0
bin	-0.06	0
bin	-0.04	0
bin	-0.02	0
bin	0	1
bin	0.02	0
bin	0.04	0
bin	0.06	0
bin	0.08	0
bin	0.1	0
bin	0.12	0
bin	0.14	0
bin	0.16	0
bin	0.18	0
bin	0.2	0
bin	0.22	0
bin	0.24	0
bin	0.26	0
bin	0.28	0
bin	0.3	0
bin	0.32	0
bin	0.34	0
bin	0.36	0
bin	0.38	0
bin	0.4	0
bin	0.42	0
bin	0.44	0
bin	0.46	0
bin	0.48	0
bin	0.5	0
scalar org.mobileHost[2].networkLayer.arp sentReply:count 0
attr title "ARP replies sent, count"
scalar org.mobileHost[2].networkLayer.arp sentReq:count 0
attr title "ARP request sent, count"
scalar org.mobileHost[2].networkLayer.arp initiatedARPResolution:count 0
attr title "ARP initiated resolutions, count"
scalar org.mobileHost[2].networkLayer.arp failedARPResolution:count 0
attr title "ARP failed resolutions, count"
scalar org.mobileHost[2].networkLayer.arp completedARPResolution:count 0
attr title "ARP completed resolutions, count"
scalar org.mobileHost[2].lo0.lo droppedPkBitError:count 0
attr interpolationmode none
attr source dropPkBitError
attr title "packets dropped/bit error, count"
scalar org.mobileHost[2].lo0.lo droppedPkBitError:sum(packetBytes) 0
attr interpolationmode none
attr source dropPkBitError
attr title "packets dropped/bit error, sum(packetBytes)"
scalar org.mobileHost[2].lo0.lo rcvdPkFromHL:count 0
attr interpolationmode none
attr source packetReceivedFromUpper
attr title "packets received from higher layer, count"
scalar org.mobileHost[2].lo0.lo rcvdPkFromHL:sum(packetBytes) 0
attr interpolationmode none
attr source packetReceivedFromUpper
attr title "packets received from higher layer, sum(packetBytes)"
scalar org.mobileHost[2].lo0.lo passedUpPk:count 0
attr interpolationmode none
attr source packetSentToUpper
attr title "packets passed to higher layer, count"
scalar org.mobileHost[2].lo0.lo passedUpPk:sum(packetBytes) 0
attr interpolationmode none
attr source packetSentToUpper
attr title "packets passed to higher layer, sum(packetBytes)"
scalar org.mobileHost[2].wlan[0].mac.statistics numReceivedUnicast 0
scalar org.mobileHost[2].wlan[0].mac.statistics numReceivedBroadcast 0
scalar org.mobileHost[2].wlan[0].mac.statistics numReceivedMulticast 0
scalar org.mobileHost[2].wlan[0].mac.statistics numReceivedNotForUs 0
scalar org.mobileHost[2].wlan[0].mac.statistics numReceivedErroneous 0
scalar org.mobileHost[2].wlan[0].mac rcvdPkFromHL:count 12
attr interpolationmode none
attr source packetReceivedFromUpper
attr title "packets received from higher layer, count"
scalar org.mobileHost[2].wlan[0].mac rcvdPkFromHL:sum(packetBytes) 12768
attr interpolationmode none
attr source packetReceivedFromUpper
attr title "packets received from higher layer, sum(packetBytes)"
scalar org.mobileHost[2].wlan[0].mac passedUpPk:count 0
attr interpolationmode none
attr source packetSentToUpper
attr title "packets passed to higher layer, count"
scalar org.mobileHost[2].wlan[0].mac passedUpPk:sum(packetBytes) 0
attr interpolationmode none
attr source packetSentToUpper
attr title "packets passed to higher layer, sum(packetBytes)"
scalar org.mobileHost[2].wlan[0].mac rcvdPkFromLL:count 34
attr interpolationmode none
attr source packetReceivedFromLower
attr title "packets received from lower layer, count"
scalar org.mobileHost[2].wlan[0].mac rcvdPkFromLL:sum(packetBytes) 36176
attr interpolationmode none
attr source packetReceivedFromLower
attr title "packets received from lower layer, sum(packetBytes)"
scalar org.mobileHost[2].wlan[0].mac sentDownPk:count 12
attr interpolationmode none
attr source packetSentToLower
attr title "packets sent to lower layer, count"
scalar org.mobileHost[2].wlan[0].mac sentDownPk:sum(packetBytes) 12768
attr interpolationmode none
attr source packetSentToLower
attr title "packets sent to lower layer, sum(packetBytes)"
statistic org.mobileHost[2].wlan[0].radio symbolErrorRate:histogram
field count 0
field mean nan
field stddev nan
field min nan
field max nan
field sum 0
field sqrsum 0
attr source symbolErrorRate
attr title "Symbol error rate, histogram"
bin	-inf	0
bin	0	0
bin	1	0
statistic org.mobileHost[2].wlan[0].radio bitErrorRate:histogram
field count 0
field mean nan
field stddev nan
field min nan
field max nan
field sum 0
field sqrsum 0
attr source bitErrorRate
attr title "Bit error rate, histogram"
bin	-inf	0
bin	0	0
bin	1	0
statistic org.mobileHost[2].wlan[0].radio packetErrorRate:histogram
field count 34
field mean 1
field stddev 0
field min 1
field max 1
field sum 34
field sqrsum 34
attr source packetErrorRate
attr title "Packet error rate, histogram"
bin	-inf	0
bin	0	0
bin	1	34
bin	2	0
statistic org.mobileHost[2].wlan[0].radio minSNIR:histogram
field count 34
field mean 3.1698005992768
field stddev 0.14350981769451
field min 2.3576134865509
field max 3.1944123299655
field sum 107.77322037541
field sqrsum 342.29925576854
attr source minSNIR
attr title "Min SNIR, histogram"
bin	-inf	0
bin	2.14	0
bin	2.16	0
bin	2.18	0
bin	2.2	0
bin	2.22	0
bin	2.24	0
bin	2.26	0
bin	2.28	0
bin	2.3	0
bin	2.32	0
bin	2.34	1
bin	2.36	0
bin	2.38	0
bin	2.4	0
bin	2.42	0
bin	2.44	0
bin	2.46	0
bin	2.48	0
bin	2.5	0
bin	2.52	0
bin	2.54	0
bin	2.56	0
bin	2.58	0
bin	2.6	0
bin	2.62	0
bin	2.64	0
bin	2.66	0
bin	2.68	0
bin	2.7	0
bin	2.72	0
bin	2.74	0
bin	2.76	0
bin	2.78	0
bin	2.8	0
bin	2.82	0
bin	2.84	0
bin	2.86	0
bin	2.88	0
bin	2.9	0
bin	2.92	0
bin	2.94	0
bin	2.96	0
bin	2.98	0
bin	3	0
bin	3.02	0
bin	3.04	0
bin	3.06	0
bin	3.08	0
bin	3.1	0
bin	3.12	0
bin	3.14	0
bin	3.16	0
bin	3.18	33
bin	3.2	0
bin	3.22	0
bin	3.24	0
bin	3.26	0
bin	3.28	0
bin	3.3	0
bin	3.32	0
bin	3.34	0
bin	3.36	0
bin	3.38	0
bin	3.4	0
bin	3.42	0
scalar org.mobileHost[2].wlan[0].radio transmissionState:count 48
attr interpolationmode sample-hold
attr source transmissionStateChanged
attr title "Radio transmission state, count"
scalar org.mobileHost[2].wlan[0].radio receptionState:count 93
attr interpolationmode sample-hold
attr source receptionStateChanged
attr title "Radio reception state, count"
scalar org.mobileHost[2].wlan[0].radio radioMode:count 26
attr interpolationmode sample-hold
attr source radioModeChanged
attr title "Radio mode, count"
statistic org.mobileHost[2].wlan[0].radio radioChannel:histogram
field count 1
field mean 0
field stddev nan
field min 0
field max 0
field sum 0
field sqrsum 0
attr interpolationmode sample-hold
attr source radioChannelChanged
attr title "Radio channel, histogram"
bin	-inf	0
bin	-0.5	0
bin	-0.48	0
bin	-0.46	0
bin	-0.44	0
bin	-0.42	0
bin	-0.4	0
bin	-0.38	0
bin	-0.36	0
bin	-0.34	0
bin	-0.32	0
bin	-0.3	0
bin	-0.28	0
bin	-0.26	0
bin	-0.24	0
bin	-0.22	0
bin	-0.2	0
bin	-0.18	0
bin	-0.16	0
bin	-0.14	0
bin	-0.12	0
bin	-0.1	0
bin	-0.08	0
bin	-0.06	0
bin	-0.04	0
bin	-0.02	0
bin	0	1
bin	0.02	0
bin	0.04	0
bin	0.06	0
bin	0.08	0
bin	0.1	0
bin	0.12	0
bin	0.14	0
bin	0.16	0
bin	0.18	0
bin	0.2	0
bin	0.22	0
bin	0.24	0
bin	0.26	0
bin	0.28	0
bin	0.3	0
bin	0.32	0
bin	0.34	0
bin	0.36	0
bin	0.38	0
bin	0.4	0
bin	0.42	0
bin	0.44	0
bin	0.46	0
bin	0.48	0
bin	0.5	0
scalar org.mobileHost[3].networkLayer.arp sentReply:count 0
attr title "ARP replies sent, count"
scalar org.mobileHost[3].networkLayer.arp sentReq:count 0
attr title "ARP request sent, count"
scalar org.mobileHost[3].networkLayer.arp initiatedARPResolution:count 0
attr title "ARP initiated resolutions, count"
scalar org.mobileHost[3].networkLayer.arp failedARPResolution:count 0
attr title "ARP failed resolutions, count"
scalar org.mobileHost[3].networkLayer.arp completedARPResolution:count 0
attr title "ARP completed resolutions, count"
scalar org.mobileHost[3].lo0.lo droppedPkBitError:count 0
attr interpolationmode none
attr source dropPkBitError
attr title "packets dropped/bit error, count"
scalar org.mobileHost[3].lo0.lo droppedPkBitError:sum(packetBytes) 0
attr interpolationmode none
attr source dropPkBitError
attr title "packets dropped/bit error, sum(packetBytes)"
scalar org.mobileHost[3].lo0.lo rcvdPkFromHL:count 0
attr interpolationmode none
attr source packetReceivedFromUpper
attr title "packets received from higher layer, count"
scalar org.mobileHost[3].lo0.lo rcvdPkFromHL:sum(packetBytes) 0
attr interpolationmode none
attr source packetReceivedFromUpper
attr title "packets received from higher layer, sum(packetBytes)"
scalar org.mobileHost[3].lo0.lo passedUpPk:count 0
attr interpolationmode none
attr source packetSentToUpper
attr title "packets passed to higher layer, count"
scalar org.mobileHost[3].lo0.lo passedUpPk:sum(packetBytes) 0
attr interpolationmode none
attr source packetSentToUpper
attr title "packets passed to higher layer, sum(packetBytes)"
scalar org.mobileHost[3].wlan[0].mac.statistics numReceivedUnicast 0
scalar org.mobileHost[3].wlan[0].mac.statistics numReceivedBroadcast 0
scalar org.mobileHost[3].wlan[0].mac.statistics numReceivedMulticast 0
scalar org.mobileHost[3].wlan[0].mac.statistics numReceivedNotForUs 0
scalar org.mobileHost[3].wlan[0].mac.statistics numReceivedErroneous 0
scalar org.mobileHost[3].wlan[0].mac rcvdPkFromHL:count 12
attr interpolationmode none
attr source packetReceivedFromUpper
attr title "packets received from higher layer, count"
scalar org.mobileHost[3].wlan[0].mac rcvdPkFromHL:sum(packetBytes) 12768
attr interpolationmode none
attr source packetReceivedFromUpper
attr title "packets received from higher layer, sum(packetBytes)"
scalar org.mobileHost[3].wlan[0].mac passedUpPk:count 0
attr interpolationmode none
attr source packetSentToUpper
attr title "packets passed to higher layer, count"
scalar org.mobileHost[3].wlan[0].mac passedUpPk:sum(packetBytes) 0
attr interpolationmode none
attr source packetSentToUpper
attr title "packets passed to higher layer, sum(packetBytes)"
scalar org.mobileHost[3].wlan[0].mac rcvdPkFromLL:count 22
attr interpolationmode none
attr source packetReceivedFromLower
attr title "packets received from lower layer, count"
scalar org.mobileHost[3].wlan[0].mac rcvdPkFromLL:sum(packetBytes) 23408
attr interpolationmode none
attr source packetReceivedFromLower
attr title "packets received from lower layer, sum(packetBytes)"
scalar org.mobileHost[3].wlan[0].mac sentDownPk:count 12
attr interpolationmode none
attr source packetSentToLower
attr title "packets sent to lower layer, count"
scalar org.mobileHost[3].wlan[0].mac sentDownPk:sum(packetBytes) 12768
attr interpolationmode none
attr source packetSentToLower
attr title "packets sent to lower layer, sum(packetBytes)"
statistic org.mobileHost[3].wlan[0].radio symbolErrorRate:histogram
field count 0
field mean nan
field stddev nan
field min nan
field max nan
field sum 0
field sqrsum 0
attr source symbolErrorRate
attr title "Symbol error rate, histogram"
bin	-inf	0
bin	0	0
bin	1	0
statistic org.mobileHost[3].wlan[0].radio bitErrorRate:histogram
field count 0
field mean nan
field stddev nan
field min nan
field max nan
field sum 0
field sqrsum 0
attr source bitErrorRate
attr title "Bit error rate, histogram"
bin	-inf	0
bin	0	0
bin	1	0
statistic org.mobileHost[3].wlan[0].radio packetErrorRate:histogram
field count 22
field mean 1
field stddev 0
field min 1
field max 1
field sum 22
field sqrsum 22
attr source packetErrorRate
attr title "Packet error rate, histogram"
bin	-inf	0
bin	0	0
bin	1	22
bin	2	0
statistic org.mobileHost[3].wlan[0].radio minSNIR:histogram
field count 22
field mean 3.1944123299655
field stddev 0
field min 3.1944123299655
field max 3.1944123299655
field sum 70.277071259241
field sqrsum 224.49394294438
attr source minSNIR
attr title "Min SNIR, histogram"
bin	-inf	0
bin	2.68	0
bin	2.7	0
bin	2.72	0
bin	2.74	0
bin	2.76	0
bin	2.78	0
bin	2.8	0
bin	2.82	0
bin	2.84	0
bin	2.86	0
bin	2.88	0
bin	2.9	0
bin	2.92	0
bin	2.94	0
bin	2.96	0
bin	2.98	0
bin	3	0
bin	3.02	0
bin	3.04	0
bin	3.06	0
bin	3.08	0
bin	3.1	0
bin	3.12	0
bin	3.14	0
bin	3.16	0
bin	3.18	22
bin	3.2	0
bin	3.22	0
bin	3.24	0
bin	3.26	0
bin	3.28	0
bin	3.3	0
bin	3.32	0
bin	3.34	0
bin	3.36	0
bin	3.38	0
bin	3.4	0
bin	3.42	0
bin	3.44	0
bin	3.46	0
bin	3.48	0
bin	3.5	0
bin	3.52	0
bin	3.54	0
bin	3.56	0
bin	3.58	0
bin	3.6	0
bin	3.62	0
bin	3.64	0
bin	3.66	0
bin	3.68	0
bin	3.7	0
scalar org.mobileHost[3].wlan[0].radio transmissionState:count 48
attr interpolationmode sample-hold
attr source transmissionStateChanged
attr title "Radio transmission state, count"
scalar org.mobileHost[3].wlan[0].radio receptionState:count 69
attr interpolationmode sample-hold
attr source receptionStateChanged
attr title "Radio reception state, count"
scalar org.mobileHost[3].wlan[0].radio radioMode:count 26
attr interpolationmode sample-hold
attr source radioModeChanged
attr title "Radio mode, count"
statistic org.mobileHost[3].wlan[0].radio radioChannel:histogram
field count 1
field mean 0
field stddev nan
field min 0
field max 0
field sum 0
field sqrsum 0
attr interpolationmode sample-hold
attr source radioChannelChanged
attr title "Radio channel, histogram"
bin	-inf	0
bin	-0.5	0
bin	-0.48	0
bin	-0.46	0
bin	-0.44	0
bin	-0.42	0
bin	-0.4	0
bin	-0.38	0
bin	-0.36	0
bin	-0.34	0
bin	-0.32	0
bin	-0.3	0
bin	-0.28	0
bin	-0.26	0
bin	-0.24	0
bin	-0.22	0
bin	-0.2	0
bin	-0.18	0
bin	-0.16	0
bin	-0.14	0
bin	-0.12	0
bin	-0.1	0
bin	-0.08	0
bin	-0.06	0
bin	-0.04	0
bin	-0.02	0
bin	0	1
bin	0.02	0
bin	0.04	0
bin	0.06	0
bin	0.08	0
bin	0.1	0
bin	0.12	0
bin	0.14	0
bin	0.16	0
bin	0.18	0
bin	0.2	0
bin	0.22	0
bin	0.24	0
bin	0.26	0
bin	0.28	0
bin	0.3	0
bin	0.32	0
bin	0.34	0
bin	0.36	0
bin	0.38	0
bin	0.4	0
bin	0.42	0
bin	0.44	0
bin	0.46	0
bin	0.48	0
bin	0.5	0
scalar org.mobileHost[4].networkLayer.arp sentReply:count 0
attr title "ARP replies sent, count"
scalar org.mobileHost[4].networkLayer.arp sentReq:count 0
attr title "ARP request sent, count"
scalar org.mobileHost[4].networkLayer.arp initiatedARPResolution:count 0
attr title "ARP initiated resolutions, count"
scalar org.mobileHost[4].networkLayer.arp failedARPResolution:count 0
attr title "ARP failed resolutions, count"
scalar org.mobileHost[4].networkLayer.arp completedARPResolution:count 0
attr title "ARP completed resolutions, count"
scalar org.mobileHost[4].lo0.lo droppedPkBitError:count 0
attr interpolationmode none
attr source dropPkBitError
attr title "packets dropped/bit error, count"
scalar org.mobileHost[4].lo0.lo droppedPkBitError:sum(packetBytes) 0
attr interpolationmode none
attr source dropPkBitError
attr title "packets dropped/bit error, sum(packetBytes)"
scalar org.mobileHost[4].lo0.lo rcvdPkFromHL:count 0
attr interpolationmode none
attr source packetReceivedFromUpper
attr title "packets received from higher layer, count"
scalar org.mobileHost[4].lo0.lo rcvdPkFromHL:sum(packetBytes) 0
attr interpolationmode none
attr source packetReceivedFromUpper
attr title "packets received from higher layer, sum(packetBytes)"
scalar org.mobileHost[4].lo0.lo passedUpPk:count 0
attr interpolationmode none
attr source packetSentToUpper
attr title "packets passed to higher layer, count"
scalar org.mobileHost[4].lo0.lo passedUpPk:sum(packetBytes) 0
attr interpolationmode none
attr source packetSentToUpper
attr title "packets passed to higher layer, sum(packetBytes)"
scalar org.mobileHost[4].wlan[0].mac.statistics numReceivedUnicast 0
scalar org.mobileHost[4].wlan[0].mac.statistics numReceivedBroadcast 0
scalar org.mobileHost[4].wlan[0].mac.statistics numReceivedMulticast 0
scalar org.mobileHost[4].wlan[0].mac.statistics numReceivedNotForUs 0
scalar org.mobileHost[4].wlan[0].mac.statistics numReceivedErroneous 0
scalar org.mobileHost[4].wlan[0].mac rcvdPkFromHL:count 10
attr interpolationmode none
attr source packetReceivedFromUpper
attr title "packets received from higher layer, count"
scalar org.mobileHost[4].wlan[0].mac rcvdPkFromHL:sum(packetBytes) 10640
attr interpolationmode none
attr source packetReceivedFromUpper
attr title "packets received from higher layer, sum(packetBytes)"
scalar org.mobileHost[4].wlan[0].mac passedUpPk:count 0
attr interpolationmode none
attr source packetSentToUpper
attr title "packets passed to higher layer, count"
scalar org.mobileHost[4].wlan[0].mac passedUpPk:sum(packetBytes) 0
attr interpolationmode none
attr source packetSentToUpper
attr title "packets passed to higher layer, sum(packetBytes)"
scalar org.mobileHost[4].wlan[0].mac rcvdPkFromLL:count 28
attr interpolationmode none
attr source packetReceivedFromLower
attr title "packets received from lower layer, count"
scalar org.mobileHost[4].wlan[0].mac rcvdPkFromLL:sum(packetBytes) 29792
attr interpolationmode none
attr source packetReceivedFromLower
attr title "packets received from lower layer, sum(packetBytes)"
scalar org.mobileHost[4].wlan[0].mac sentDownPk:count 10
attr interpolationmode none
attr source packetSentToLower
attr title "packets sent to lower layer, count"
scalar org.mobileHost[4].wlan[0].mac sentDownPk:sum(packetBytes) 10640
attr interpolationmode none
attr source packetSentToLower
attr title "packets sent to lower layer, sum(packetBytes)"
statistic org.mobileHost[4].wlan[0].radio symbolErrorRate:histogram
field count 0
field mean nan
field stddev nan
field min nan
field max nan
field sum 0
field sqrsum 0
attr source symbolErrorRate
attr title "Symbol error rate, histogram"
bin	-inf	0
bin	0	0
bin	1	0
statistic org.mobileHost[4].wlan[0].radio bitErrorRate:histogram
field count 0
field mean nan
field stddev nan
field min nan
field max nan
field sum 0
field sqrsum 0
attr source bitErrorRate
attr title "Bit error rate, histogram"
bin	-inf	0
bin	0	0
bin	1	0
statistic org.mobileHost[4].wlan[0].radio packetErrorRate:histogram
field count 28
field mean 1
field stddev 0
field min 1
field max 1
field sum 28
field sqrsum 28
attr source packetErrorRate
attr title "Packet error rate, histogram"
bin	-inf	0
bin	0	0
bin	1	28
bin	2	0
statistic org.mobileHost[4].wlan[0].radio minSNIR:histogram
field count 28
field mean 3.1944123299655
field stddev 6.4889318222024e-008
field min 3.1944123299655
field max 3.1944123299655
field sum 89.443545239033
field sqrsum 285.71956374739
attr source minSNIR
attr title "Min SNIR, histogram"
bin	-inf	0
bin	2.68	0
bin	2.7	0
bin	2.72	0
bin	2.74	0
bin	2.76	0
bin	2.78	0
bin	2.8	0
bin	2.82	0
bin	2.84	0
bin	2.86	0
bin	2.88	0
bin	2.9	0
bin	2.92	0
bin	2.94	0
bin	2.96	0
bin	2.98	0
bin	3	0
bin	3.02	0
bin	3.04	0
bin	3.06	0
bin	3.08	0
bin	3.1	0
bin	3.12	0
bin	3.14	0
bin	3.16	0
bin	3.18	28
bin	3.2	0
bin	3.22	0
bin	3.24	0
bin	3.26	0
bin	3.28	0
bin	3.3	0
bin	3.32	0
bin	3.34	0
bin	3.36	0
bin	3.38	0
bin	3.4	0
bin	3.42	0
bin	3.44	0
bin	3.46	0
bin	3.48	0
bin	3.5	0
bin	3.52	0
bin	3.54	0
bin	3.56	0
bin	3.58	0
bin	3.6	0
bin	3.62	0
bin	3.64	0
bin	3.66	0
bin	3.68	0
bin	3.7	0
scalar org.mobileHost[4].wlan[0].radio transmissionState:count 40
attr interpolationmode sample-hold
attr source transmissionStateChanged
attr title "Radio transmission state, count"
scalar org.mobileHost[4].wlan[0].radio receptionState:count 77
attr interpolationmode sample-hold
attr source receptionStateChanged
attr title "Radio reception state, count"
scalar org.mobileHost[4].wlan[0].radio radioMode:count 22
attr interpolationmode sample-hold
attr source radioModeChanged
attr title "Radio mode, count"
statistic org.mobileHost[4].wlan[0].radio radioChannel:histogram
field count 1
field mean 0
field stddev nan
field min 0
field max 0
field sum 0
field sqrsum 0
attr interpolationmode sample-hold
attr source radioChannelChanged
attr title "Radio channel, histogram"
bin	-inf	0
bin	-0.5	0
bin	-0.48	0
bin	-0.46	0
bin	-0.44	0
bin	-0.42	0
bin	-0.4	0
bin	-0.38	0
bin	-0.36	0
bin	-0.34	0
bin	-0.32	0
bin	-0.3	0
bin	-0.28	0
bin	-0.26	0
bin	-0.24	0
bin	-0.22	0
bin	-0.2	0
bin	-0.18	0
bin	-0.16	0
bin	-0.14	0
bin	-0.12	0
bin	-0.1	0
bin	-0.08	0
bin	-0.06	0
bin	-0.04	0
bin	-0.02	0
bin	0	1
bin	0.02	0
bin	0.04	0
bin	0.06	0
bin	0.08	0
bin	0.1	0
bin	0.12	0
bin	0.14	0
bin	0.16	0
bin	0.18	0
bin	0.2	0
bin	0.22	0
bin	0.24	0
bin	0.26	0
bin	0.28	0
bin	0.3	0
bin	0.32	0
bin	0.34	0
bin	0.36	0
bin	0.38	0
bin	0.4	0
bin	0.42	0
bin	0.44	0
bin	0.46	0
bin	0.48	0
bin	0.5	0
scalar org.mobileHost[5].networkLayer.arp sentReply:count 0
attr title "ARP replies sent, count"
scalar org.mobileHost[5].networkLayer.arp sentReq:count 0
attr title "ARP request sent, count"
scalar org.mobileHost[5].networkLayer.arp initiatedARPResolution:count 0
attr title "ARP initiated resolutions, count"
scalar org.mobileHost[5].networkLayer.arp failedARPResolution:count 0
attr title "ARP failed resolutions, count"
scalar org.mobileHost[5].networkLayer.arp completedARPResolution:count 0
attr title "ARP completed resolutions, count"
scalar org.mobileHost[5].lo0.lo droppedPkBitError:count 0
attr interpolationmode none
attr source dropPkBitError
attr title "packets dropped/bit error, count"
scalar org.mobileHost[5].lo0.lo droppedPkBitError:sum(packetBytes) 0
attr interpolationmode none
attr source dropPkBitError
attr title "packets dropped/bit error, sum(packetBytes)"
scalar org.mobileHost[5].lo0.lo rcvdPkFromHL:count 0
attr interpolationmode none
attr source packetReceivedFromUpper
attr title "packets received from higher layer, count"
scalar org.mobileHost[5].lo0.lo rcvdPkFromHL:sum(packetBytes) 0
attr interpolationmode none
attr source packetReceivedFromUpper
attr title "packets received from higher layer, sum(packetBytes)"
scalar org.mobileHost[5].lo0.lo passedUpPk:count 0
attr interpolationmode none
attr source packetSentToUpper
attr title "packets passed to higher layer, count"
scalar org.mobileHost[5].lo0.lo passedUpPk:sum(packetBytes) 0
attr interpolationmode none
attr source packetSentToUpper
attr title "packets passed to higher layer, sum(packetBytes)"
scalar org.mobileHost[5].wlan[0].mac.statistics numReceivedUnicast 0
scalar org.mobileHost[5].wlan[0].mac.statistics numReceivedBroadcast 0
scalar org.mobileHost[5].wlan[0].mac.statistics numReceivedMulticast 0
scalar org.mobileHost[5].wlan[0].mac.statistics numReceivedNotForUs 0
scalar org.mobileHost[5].wlan[0].mac.statistics numReceivedErroneous 0
scalar org.mobileHost[5].wlan[0].mac rcvdPkFromHL:count 10
attr interpolationmode none
attr source packetReceivedFromUpper
attr title "packets received from higher layer, count"
scalar org.mobileHost[5].wlan[0].mac rcvdPkFromHL:sum(packetBytes) 10640
attr interpolationmode none
attr source packetReceivedFromUpper
attr title "packets received from higher layer, sum(packetBytes)"
scalar org.mobileHost[5].wlan[0].mac passedUpPk:count 0
attr interpolationmode none
attr source packetSentToUpper
attr title "packets passed to higher layer, count"
scalar org.mobileHost[5].wlan[0].mac passedUpPk:sum(packetBytes) 0
attr interpolationmode none
attr source packetSentToUpper
attr title "packets passed to higher layer, sum(packetBytes)"
scalar org.mobileHost[5].wlan[0].mac rcvdPkFromLL:count 42
attr interpolationmode none
attr source packetReceivedFromLower
attr title "packets received from lower layer, count"
scalar org.mobileHost[5].wlan[0].mac rcvdPkFromLL:sum(packetBytes) 44688
attr interpolationmode none
attr source packetReceivedFromLower
attr title "packets received from lower layer, sum(packetBytes)"
scalar org.mobileHost[5].wlan[0].mac sentDownPk:count 10
attr interpolationmode none
attr source packetSentToLower
attr title "packets sent to lower layer, count"
scalar org.mobileHost[5].wlan[0].mac sentDownPk:sum(packetBytes) 10640
attr interpolationmode none
attr source packetSentToLower
attr title "packets sent to lower layer, sum(packetBytes)"
statistic org.mobileHost[5].wlan[0].radio symbolErrorRate:histogram
field count 0
field mean nan
field stddev nan
field min nan
field max nan
field sum 0
field sqrsum 0
attr source symbolErrorRate
attr title "Symbol error rate, histogram"
bin	-inf	0
bin	0	0
bin	1	0
statistic org.mobileHost[5].wlan[0].radio bitErrorRate:histogram
field count 0
field mean nan
field stddev nan
field min nan
field max nan
field sum 0
field sqrsum 0
attr source bitErrorRate
attr title "Bit error rate, histogram"
bin	-inf	0
bin	0	0
bin	1	0
statistic org.mobileHost[5].wlan[0].radio packetErrorRate:histogram
field count 42
field mean 1
field stddev 0
field min 1
field max 1
field sum 42
field sqrsum 42
attr source packetErrorRate
attr title "Packet error rate, histogram"
bin	-inf	0
bin	0	0
bin	1	42
bin	2	0
statistic org.mobileHost[5].wlan[0].radio minSNIR:histogram
field count 42
field mean 3.1944123299655
field stddev 7.4469452804854e-008
field min 3.1944123299655
field max 3.1944123299655
field sum 134.16531785855
field sqrsum 428.57934562109
attr source minSNIR
attr title "Min SNIR, histogram"
bin	-inf	0
bin	2.68	0
bin	2.7	0
bin	2.72	0
bin	2.74	0
bin	2.76	0
bin	2.78	0
bin	2.8	0
bin	2.82	0
bin	2.84	0
bin	2.86	0
bin	2.88	0
bin	2.9	0
bin	2.92	0
bin	2.94	0
bin	2.96	0
bin	2.98	0
bin	3	0
bin	3.02	0
bin	3.04	0
bin	3.06	0
bin	3.08	0
bin	3.1	0
bin	3.12	0
bin	3.14	0
bin	3.16	0
bin	3.18	42
bin	3.2	0
bin	3.22	0
bin	3.24	0
bin	3.26	0
bin	3.28	0
bin	3.3	0
bin	3.32	0
bin	3.34	0
bin	3.36	0
bin	3.38	0
bin	3.4	0
bin	3.42	0
bin	3.44	0
bin	3.46	0
bin	3.48	0
bin	3.5	0
bin	3.52	0
bin	3.54	0
bin	3.56	0
bin	3.58	0
bin	3.6	0
bin	3.62	0
bin	3.64	0
bin	3.66	0
bin	3.68	0
bin	3.7	0
scalar org.mobileHost[5].wlan[0].radio transmissionState:count 40
attr interpolationmode sample-hold
attr source transmissionStateChanged
attr title "Radio transmission state, count"
scalar org.mobileHost[5].wlan[0].radio receptionState:count 105
attr interpolationmode sample-hold
attr source receptionStateChanged
attr title "Radio reception state, count"
scalar org.mobileHost[5].wlan[0].radio radioMode:count 22
attr interpolationmode sample-hold
attr source radioModeChanged
attr title "Radio mode, count"
statistic org.mobileHost[5].wlan[0].radio radioChannel:histogram
field count 1
field mean 0
field stddev nan
field min 0
field max 0
field sum 0
field sqrsum 0
attr interpolationmode sample-hold
attr source radioChannelChanged
attr title "Radio channel, histogram"
bin	-inf	0
bin	-0.5	0
bin	-0.48	0
bin	-0.46	0
bin	-0.44	0
bin	-0.42	0
bin	-0.4	0
bin	-0.38	0
bin	-0.36	0
bin	-0.34	0
bin	-0.32	0
bin	-0.3	0
bin	-0.28	0
bin	-0.26	0
bin	-0.24	0
bin	-0.22	0
bin	-0.2	0
bin	-0.18	0
bin	-0.16	0
bin	-0.14	0
bin	-0.12	0
bin	-0.1	0
bin	-0.08	0
bin	-0.06	0
bin	-0.04	0
bin	-0.02	0
bin	0	1
bin	0.02	0
bin	0.04	0
bin	0.06	0
bin	0.08	0
bin	0.1	0
bin	0.12	0
bin	0.14	0
bin	0.16	0
bin	0.18	0
bin	0.2	0
bin	0.22	0
bin	0.24	0
bin	0.26	0
bin	0.28	0
bin	0.3	0
bin	0.32	0
bin	0.34	0
bin	0.36	0
bin	0.38	0
bin	0.4	0
bin	0.42	0
bin	0.44	0
bin	0.46	0
bin	0.48	0
bin	0.5	0
scalar org.mobileHost[6].networkLayer.arp sentReply:count 0
attr title "ARP replies sent, count"
scalar org.mobileHost[6].networkLayer.arp sentReq:count 0
attr title "ARP request sent, count"
scalar org.mobileHost[6].networkLayer.arp initiatedARPResolution:count 0
attr title "ARP initiated resolutions, count"
scalar org.mobileHost[6].networkLayer.arp failedARPResolution:count 0
attr title "ARP failed resolutions, count"
scalar org.mobileHost[6].networkLayer.arp completedARPResolution:count 0
attr title "ARP completed resolutions, count"
scalar org.mobileHost[6].lo0.lo droppedPkBitError:count 0
attr interpolationmode none
attr source dropPkBitError
attr title "packets dropped/bit error, count"
scalar org.mobileHost[6].lo0.lo droppedPkBitError:sum(packetBytes) 0
attr interpolationmode none
attr source dropPkBitError
attr title "packets dropped/bit error, sum(packetBytes)"
scalar org.mobileHost[6].lo0.lo rcvdPkFromHL:count 0
attr interpolationmode none
attr source packetReceivedFromUpper
attr title "packets received from higher layer, count"
scalar org.mobileHost[6].lo0.lo rcvdPkFromHL:sum(packetBytes) 0
attr interpolationmode none
attr source packetReceivedFromUpper
attr title "packets received from higher layer, sum(packetBytes)"
scalar org.mobileHost[6].lo0.lo passedUpPk:count 0
attr interpolationmode none
attr source packetSentToUpper
attr title "packets passed to higher layer, count"
scalar org.mobileHost[6].lo0.lo passedUpPk:sum(packetBytes) 0
attr interpolationmode none
attr source packetSentToUpper
attr title "packets passed to higher layer, sum(packetBytes)"
scalar org.mobileHost[6].wlan[0].mac.statistics numReceivedUnicast 0
scalar org.mobileHost[6].wlan[0].mac.statistics numReceivedBroadcast 0
scalar org.mobileHost[6].wlan[0].mac.statistics numReceivedMulticast 0
scalar org.mobileHost[6].wlan[0].mac.statistics numReceivedNotForUs 0
scalar org.mobileHost[6].wlan[0].mac.statistics numReceivedErroneous 0
scalar org.mobileHost[6].wlan[0].mac rcvdPkFromHL:count 10
attr interpolationmode none
attr source packetReceivedFromUpper
attr title "packets received from higher layer, count"
scalar org.mobileHost[6].wlan[0].mac rcvdPkFromHL:sum(packetBytes) 10640
attr interpolationmode none
attr source packetReceivedFromUpper
attr title "packets received from higher layer, sum(packetBytes)"
scalar org.mobileHost[6].wlan[0].mac passedUpPk:count 0
attr interpolationmode none
attr source packetSentToUpper
attr title "packets passed to higher layer, count"
scalar org.mobileHost[6].wlan[0].mac passedUpPk:sum(packetBytes) 0
attr interpolationmode none
attr source packetSentToUpper
attr title "packets passed to higher layer, sum(packetBytes)"
scalar org.mobileHost[6].wlan[0].mac rcvdPkFromLL:count 42
attr interpolationmode none
attr source packetReceivedFromLower
attr title "packets received from lower layer, count"
scalar org.mobileHost[6].wlan[0].mac rcvdPkFromLL:sum(packetBytes) 44688
attr interpolationmode none
attr source packetReceivedFromLower
attr title "packets received from lower layer, sum(packetBytes)"
scalar org.mobileHost[6].wlan[0].mac sentDownPk:count 10
attr interpolationmode none
attr source packetSentToLower
attr title "packets sent to lower layer, count"
scalar org.mobileHost[6].wlan[0].mac sentDownPk:sum(packetBytes) 10640
attr interpolationmode none
attr source packetSentToLower
attr title "packets sent to lower layer, sum(packetBytes)"
statistic org.mobileHost[6].wlan[0].radio symbolErrorRate:histogram
field count 0
field mean nan
field stddev nan
field min nan
field max nan
field sum 0
field sqrsum 0
attr source symbolErrorRate
attr title "Symbol error rate, histogram"
bin	-inf	0
bin	0	0
bin	1	0
statistic org.mobileHost[6].wlan[0].radio bitErrorRate:histogram
field count 0
field mean nan
field stddev nan
field min nan
field max nan
field sum 0
field sqrsum 0
attr source bitErrorRate
attr title "Bit error rate, histogram"
bin	-inf	0
bin	0	0
bin	1	0
statistic org.mobileHost[6].wlan[0].radio packetErrorRate:histogram
field count 42
field mean 1
field stddev 0
field min 1
field max 1
field sum 42
field sqrsum 42
attr source packetErrorRate
attr title "Packet error rate, histogram"
bin	-inf	0
bin	0	0
bin	1	42
bin	2	0
statistic org.mobileHost[6].wlan[0].radio minSNIR:histogram
field count 42
field mean 3.1944123299655
field stddev 7.4469452804854e-008
field min 3.1944123299655
field max 3.1944123299655
field sum 134.16531785855
field sqrsum 428.57934562109
attr source minSNIR
attr title "Min SNIR, histogram"
bin	-inf	0
bin	2.68	0
bin	2.7	0
bin	2.72	0
bin	2.74	0
bin	2.76	0
bin	2.78	0
bin	2.8	0
bin	2.82	0
bin	2.84	0
bin	2.86	0
bin	2.88	0
bin	2.9	0
bin	2.92	0
bin	2.94	0
bin	2.96	0
bin	2.98	0
bin	3	0
bin	3.02	0
bin	3.04	0
bin	3.06	0
bin	3.08	0
bin	3.1	0
bin	3.12	0
bin	3.14	0
bin	3.16	0
bin	3.18	42
bin	3.2	0
bin	3.22	0
bin	3.24	0
bin	3.26	0
bin	3.28	0
bin	3.3	0
bin	3.32	0
bin	3.34	0
bin	3.36	0
bin	3.38	0
bin	3.4	0
bin	3.42	0
bin	3.44	0
bin	3.46	0
bin	3.48	0
bin	3.5	0
bin	3.52	0
bin	3.54	0
bin	3.56	0
bin	3.58	0
bin	3.6	0
bin	3.62	0
bin	3.64	0
bin	3.66	0
bin	3.68	0
bin	3.7	0
scalar org.mobileHost[6].wlan[0].radio transmissionState:count 40
attr interpolationmode sample-hold
attr source transmissionStateChanged
attr title "Radio transmission state, count"
scalar org.mobileHost[6].wlan[0].radio receptionState:count 107
attr interpolationmode sample-hold
attr source receptionStateChanged
attr title "Radio reception state, count"
scalar org.mobileHost[6].wlan[0].radio radioMode:count 22
attr interpolationmode sample-hold
attr source radioModeChanged
attr title "Radio mode, count"
statistic org.mobileHost[6].wlan[0].radio radioChannel:histogram
field count 1
field mean 0
field stddev nan
field min 0
field max 0
field sum 0
field sqrsum 0
attr interpolationmode sample-hold
attr source radioChannelChanged
attr title "Radio channel, histogram"
bin	-inf	0
bin	-0.5	0
bin	-0.48	0
bin	-0.46	0
bin	-0.44	0
bin	-0.42	0
bin	-0.4	0
bin	-0.38	0
bin	-0.36	0
bin	-0.34	0
bin	-0.32	0
bin	-0.3	0
bin	-0.28	0
bin	-0.26	0
bin	-0.24	0
bin	-0.22	0
bin	-0.2	0
bin	-0.18	0
bin	-0.16	0
bin	-0.14	0
bin	-0.12	0
bin	-0.1	0
bin	-0.08	0
bin	-0.06	0
bin	-0.04	0
bin	-0.02	0
bin	0	1
bin	0.02	0
bin	0.04	0
bin	0.06	0
bin	0.08	0
bin	0.1	0
bin	0.12	0
bin	0.14	0
bin	0.16	0
bin	0.18	0
bin	0.2	0
bin	0.22	0
bin	0.24	0
bin	0.26	0
bin	0.28	0
bin	0.3	0
bin	0.32	0
bin	0.34	0
bin	0.36	0
bin	0.38	0
bin	0.4	0
bin	0.42	0
bin	0.44	0
bin	0.46	0
bin	0.48	0
bin	0.5	0
scalar org.mobileHost[7].networkLayer.arp sentReply:count 0
attr title "ARP replies sent, count"
scalar org.mobileHost[7].networkLayer.arp sentReq:count 0
attr title "ARP request sent, count"
scalar org.mobileHost[7].networkLayer.arp initiatedARPResolution:count 0
attr title "ARP initiated resolutions, count"
scalar org.mobileHost[7].networkLayer.arp failedARPResolution:count 0
attr title "ARP failed resolutions, count"
scalar org.mobileHost[7].networkLayer.arp completedARPResolution:count 0
attr title "ARP completed resolutions, count"
scalar org.mobileHost[7].lo0.lo droppedPkBitError:count 0
attr interpolationmode none
attr source dropPkBitError
attr title "packets dropped/bit error, count"
scalar org.mobileHost[7].lo0.lo droppedPkBitError:sum(packetBytes) 0
attr interpolationmode none
attr source dropPkBitError
attr title "packets dropped/bit error, sum(packetBytes)"
scalar org.mobileHost[7].lo0.lo rcvdPkFromHL:count 0
attr interpolationmode none
attr source packetReceivedFromUpper
attr title "packets received from higher layer, count"
scalar org.mobileHost[7].lo0.lo rcvdPkFromHL:sum(packetBytes) 0
attr interpolationmode none
attr source packetReceivedFromUpper
attr title "packets received from higher layer, sum(packetBytes)"
scalar org.mobileHost[7].lo0.lo passedUpPk:count 0
attr interpolationmode none
attr source packetSentToUpper
attr title "packets passed to higher layer, count"
scalar org.mobileHost[7].lo0.lo passedUpPk:sum(packetBytes) 0
attr interpolationmode none
attr source packetSentToUpper
attr title "packets passed to higher layer, sum(packetBytes)"
scalar org.mobileHost[7].wlan[0].mac.statistics numReceivedUnicast 0
scalar org.mobileHost[7].wlan[0].mac.statistics numReceivedBroadcast 0
scalar org.mobileHost[7].wlan[0].mac.statistics numReceivedMulticast 0
scalar org.mobileHost[7].wlan[0].mac.statistics numReceivedNotForUs 0
scalar org.mobileHost[7].wlan[0].mac.statistics numReceivedErroneous 0
scalar org.mobileHost[7].wlan[0].mac rcvdPkFromHL:count 10
attr interpolationmode none
attr source packetReceivedFromUpper
attr title "packets received from higher layer, count"
scalar org.mobileHost[7].wlan[0].mac rcvdPkFromHL:sum(packetBytes) 10640
attr interpolationmode none
attr source packetReceivedFromUpper
attr title "packets received from higher layer, sum(packetBytes)"
scalar org.mobileHost[7].wlan[0].mac passedUpPk:count 0
attr interpolationmode none
attr source packetSentToUpper
attr title "packets passed to higher layer, count"
scalar org.mobileHost[7].wlan[0].mac passedUpPk:sum(packetBytes) 0
attr interpolationmode none
attr source packetSentToUpper
attr title "packets passed to higher layer, sum(packetBytes)"
scalar org.mobileHost[7].wlan[0].mac rcvdPkFromLL:count 32
attr interpolationmode none
attr source packetReceivedFromLower
attr title "packets received from lower layer, count"
scalar org.mobileHost[7].wlan[0].mac rcvdPkFromLL:sum(packetBytes) 34048
attr interpolationmode none
attr source packetReceivedFromLower
attr title "packets received from lower layer, sum(packetBytes)"
scalar org.mobileHost[7].wlan[0].mac sentDownPk:count 10
attr interpolationmode none
attr source packetSentToLower
attr title "packets sent to lower layer, count"
scalar org.mobileHost[7].wlan[0].mac sentDownPk:sum(packetBytes) 10640
attr interpolationmode none
attr source packetSentToLower
attr title "packets sent to lower layer, sum(packetBytes)"
statistic org.mobileHost[7].wlan[0].radio symbolErrorRate:histogram
field count 0
field mean nan
field stddev nan
field min nan
field max nan
field sum 0
field sqrsum 0
attr source symbolErrorRate
attr title "Symbol error rate, histogram"
bin	-inf	0
bin	0	0
bin	1	0
statistic org.mobileHost[7].wlan[0].radio bitErrorRate:histogram
field count 0
field mean nan
field stddev nan
field min nan
field max nan
field sum 0
field sqrsum 0
attr source bitErrorRate
attr title "Bit error rate, histogram"
bin	-inf	0
bin	0	0
bin	1	0
statistic org.mobileHost[7].wlan[0].radio packetErrorRate:histogram
field count 32
field mean 1
field stddev 0
field min 1
field max 1
field sum 32
field sqrsum 32
attr source packetErrorRate
attr title "Packet error rate, histogram"
bin	-inf	0
bin	0	0
bin	1	32
bin	2	0
statistic org.mobileHost[7].wlan[0].radio minSNIR:histogram
field count 32
field mean 3.155497587963
field stddev 0.22013502366451
field min 1.9491405858869
field max 3.1944123299655
field sum 100.97592281482
field sqrsum 320.13152317245
attr source minSNIR
attr title "Min SNIR, histogram"
bin	-inf	0
bin	1.62	0
bin	1.64	0
bin	1.66	0
bin	1.68	0
bin	1.7	0
bin	1.72	0
bin	1.74	0
bin	1.76	0
bin	1.78	0
bin	1.8	0
bin	1.82	0
bin	1.84	0
bin	1.86	0
bin	1.88	0
bin	1.9	0
bin	1.92	0
bin	1.94	1
bin	1.96	0
bin	1.98	0
bin	2	0
bin	2.02	0
bin	2.04	0
bin	2.06	0
bin	2.08	0
bin	2.1	0
bin	2.12	0
bin	2.14	0
bin	2.16	0
bin	2.18	0
bin	2.2	0
bin	2.22	0
bin	2.24	0
bin	2.26	0
bin	2.28	0
bin	2.3	0
bin	2.32	0
bin	2.34	0
bin	2.36	0
bin	2.38	0
bin	2.4	0
bin	2.42	0
bin	2.44	0
bin	2.46	0
bin	2.48	0
bin	2.5	0
bin	2.52	0
bin	2.54	0
bin	2.56	0
bin	2.58	0
bin	2.6	0
bin	2.62	0
bin	2.64	0
bin	2.66	0
bin	2.68	0
bin	2.7	0
bin	2.72	0
bin	2.74	0
bin	2.76	0
bin	2.78	0
bin	2.8	0
bin	2.82	0
bin	2.84	0
bin	2.86	0
bin	2.88	0
bin	2.9	0
bin	2.92	0
bin	2.94	0
bin	2.96	0
bin	2.98	0
bin	3	0
bin	3.02	0
bin	3.04	0
bin	3.06	0
bin	3.08	0
bin	3.1	0
bin	3.12	0
bin	3.14	0
bin	3.16	0
bin	3.18	31
bin	3.2	0
bin	3.22	0
bin	3.24	0
bin	3.26	0
bin	3.28	0
bin	3.3	0
bin	3.32	0
bin	3.34	0
bin	3.36	0
bin	3.38	0
bin	3.4	0
bin	3.42	0
bin	3.44	0
bin	3.46	0
bin	3.48	0
bin	3.5	0
bin	3.52	0
scalar org.mobileHost[7].wlan[0].radio transmissionState:count 40
attr interpolationmode sample-hold
attr source transmissionStateChanged
attr title "Radio transmission state, count"
scalar org.mobileHost[7].wlan[0].radio receptionState:count 85
attr interpolationmode sample-hold
attr source receptionStateChanged
attr title "Radio reception state, count"
scalar org.mobileHost[7].wlan[0].radio radioMode:count 22
attr interpolationmode sample-hold
attr source radioModeChanged
attr title "Radio mode, count"
statistic org.mobileHost[7].wlan[0].radio radioChannel:histogram
field count 1
field mean 0
field stddev nan
field min 0
field max 0
field sum 0
field sqrsum 0
attr interpolationmode sample-hold
attr source radioChannelChanged
attr title "Radio channel, histogram"
bin	-inf	0
bin	-0.5	0
bin	-0.48	0
bin	-0.46	0
bin	-0.44	0
bin	-0.42	0
bin	-0.4	0
bin	-0.38	0
bin	-0.36	0
bin	-0.34	0
bin	-0.32	0
bin	-0.3	0
bin	-0.28	0
bin	-0.26	0
bin	-0.24	0
bin	-0.22	0
bin	-0.2	0
bin	-0.18	0
bin	-0.16	0
bin	-0.14	0
bin	-0.12	0
bin	-0.1	0
bin	-0.08	0
bin	-0.06	0
bin	-0.04	0
bin	-0.02	0
bin	0	1
bin	0.02	0
bin	0.04	0
bin	0.06	0
bin	0.08	0
bin	0.1	0
bin	0.12	0
bin	0.14	0
bin	0.16	0
bin	0.18	0
bin	0.2	0
bin	0.22	0
bin	0.24	0
bin	0.26	0
bin	0.28	0
bin	0.3	0
bin	0.32	0
bin	0.34	0
bin	0.36	0
bin	0.38	0
bin	0.4	0
bin	0.42	0
bin	0.44	0
bin	0.46	0
bin	0.48	0
bin	0.5	0
scalar org.mobileHost[8].networkLayer.arp sentReply:count 0
attr title "ARP replies sent, count"
scalar org.mobileHost[8].networkLayer.arp sentReq:count 0
attr title "ARP request sent, count"
scalar org.mobileHost[8].networkLayer.arp initiatedARPResolution:count 0
attr title "ARP initiated resolutions, count"
scalar org.mobileHost[8].networkLayer.arp failedARPResolution:count 0
attr title "ARP failed resolutions, count"
scalar org.mobileHost[8].networkLayer.arp completedARPResolution:count 0
attr title "ARP completed resolutions, count"
scalar org.mobileHost[8].lo0.lo droppedPkBitError:count 0
attr interpolationmode none
attr source dropPkBitError
attr title "packets dropped/bit error, count"
scalar org.mobileHost[8].lo0.lo droppedPkBitError:sum(packetBytes) 0
attr interpolationmode none
attr source dropPkBitError
attr title "packets dropped/bit error, sum(packetBytes)"
scalar org.mobileHost[8].lo0.lo rcvdPkFromHL:count 0
attr interpolationmode none
attr source packetReceivedFromUpper
attr title "packets received from higher layer, count"
scalar org.mobileHost[8].lo0.lo rcvdPkFromHL:sum(packetBytes) 0
attr interpolationmode none
attr source packetReceivedFromUpper
attr title "packets received from higher layer, sum(packetBytes)"
scalar org.mobileHost[8].lo0.lo passedUpPk:count 0
attr interpolationmode none
attr source packetSentToUpper
attr title "packets passed to higher layer, count"
scalar org.mobileHost[8].lo0.lo passedUpPk:sum(packetBytes) 0
attr interpolationmode none
attr source packetSentToUpper
attr title "packets passed to higher layer, sum(packetBytes)"
scalar org.mobileHost[8].wlan[0].mac.statistics numReceivedUnicast 0
scalar org.mobileHost[8].wlan[0].mac.statistics numReceivedBroadcast 0
scalar org.mobileHost[8].wlan[0].mac.statistics numReceivedMulticast 0
scalar org.mobileHost[8].wlan[0].mac.statistics numReceivedNotForUs 0
scalar org.mobileHost[8].wlan[0].mac.statistics numReceivedErroneous 0
scalar org.mobileHost[8].wlan[0].mac rcvdPkFromHL:count 8
attr interpolationmode none
attr source packetReceivedFromUpper
attr title "packets received from higher layer, count"
scalar org.mobileHost[8].wlan[0].mac rcvdPkFromHL:sum(packetBytes) 8512
attr interpolationmode none
attr source packetReceivedFromUpper
attr title "packets received from higher layer, sum(packetBytes)"
scalar org.mobileHost[8].wlan[0].mac passedUpPk:count 0
attr interpolationmode none
attr source packetSentToUpper
attr title "packets passed to higher layer, count"
scalar org.mobileHost[8].wlan[0].mac passedUpPk:sum(packetBytes) 0
attr interpolationmode none
attr source packetSentToUpper
attr title "packets passed to higher layer, sum(packetBytes)"
scalar org.mobileHost[8].wlan[0].mac rcvdPkFromLL:count 30
attr interpolationmode none
attr source packetReceivedFromLower
attr title "packets received from lower layer, count"
scalar org.mobileHost[8].wlan[0].mac rcvdPkFromLL:sum(packetBytes) 31920
attr interpolationmode none
attr source packetReceivedFromLower
attr title "packets received from lower layer, sum(packetBytes)"
scalar org.mobileHost[8].wlan[0].mac sentDownPk:count 8
attr interpolationmode none
attr source packetSentToLower
attr title "packets sent to lower layer, count"
scalar org.mobileHost[8].wlan[0].mac sentDownPk:sum(packetBytes) 8512
attr interpolationmode none
attr source packetSentToLower
attr title "packets sent to lower layer, sum(packetBytes)"
statistic org.mobileHost[8].wlan[0].radio symbolErrorRate:histogram
field count 0
field mean nan
field stddev nan
field min nan
field max nan
field sum 0
field sqrsum 0
attr source symbolErrorRate
attr title "Symbol error rate, histogram"
bin	-inf	0
bin	0	0
bin	1	0
statistic org.mobileHost[8].wlan[0].radio bitErrorRate:histogram
field count 0
field mean nan
field stddev nan
field min nan
field max nan
field sum 0
field sqrsum 0
attr source bitErrorRate
attr title "Bit error rate, histogram"
bin	-inf	0
bin	0	0
bin	1	0
statistic org.mobileHost[8].wlan[0].radio packetErrorRate:histogram
field count 30
field mean 1
field stddev 0
field min 1
field max 1
field sum 30
field sqrsum 30
attr source packetErrorRate
attr title "Packet error rate, histogram"
bin	-inf	0
bin	0	0
bin	1	30
bin	2	0
statistic org.mobileHost[8].wlan[0].radio minSNIR:histogram
field count 30
field mean 3.1944123299655
field stddev 6.261178629862e-008
field min 3.1944123299655
field max 3.1944123299655
field sum 95.832369898964
field sqrsum 306.12810401506
attr source minSNIR
attr title "Min SNIR, histogram"
bin	-inf	0
bin	2.68	0
bin	2.7	0
bin	2.72	0
bin	2.74	0
bin	2.76	0
bin	2.78	0
bin	2.8	0
bin	2.82	0
bin	2.84	0
bin	2.86	0
bin	2.88	0
bin	2.9	0
bin	2.92	0
bin	2.94	0
bin	2.96	0
bin	2.98	0
bin	3	0
bin	3.02	0
bin	3.04	0
bin	3.06	0
bin	3.08	0
bin	3.1	0
bin	3.12	0
bin	3.14	0
bin	3.16	0
bin	3.18	30
bin	3.2	0
bin	3.22	0
bin	3.24	0
bin	3.26	0
bin	3.28	0
bin	3.3	0
bin	3.32	0
bin	3.34	0
bin	3.36	0
bin	3.38	0
bin	3.4	0
bin	3.42	0
bin	3.44	0
bin	3.46	0
bin	3.48	0
bin	3.5	0
bin	3.52	0
bin	3.54	0
bin	3.56	0
bin	3.58	0
bin	3.6	0
bin	3.62	0
bin	3.64	0
bin	3.66	0
bin	3.68	0
bin	3.7	0
scalar org.mobileHost[8].wlan[0].radio transmissionState:count 32
attr interpolationmode sample-hold
attr source transmissionStateChanged
attr title "Radio transmission state, count"
scalar org.mobileHost[8].wlan[0].radio receptionState:count 77
attr interpolationmode sample-hold
attr source receptionStateChanged
attr title "Radio reception state, count"
scalar org.mobileHost[8].wlan[0].radio radioMode:count 18
attr interpolationmode sample-hold
attr source radioModeChanged
attr title "Radio mode, count"
statistic org.mobileHost[8].wlan[0].radio radioChannel:histogram
field count 1
field mean 0
field stddev nan
field min 0
field max 0
field sum 0
field sqrsum 0
attr interpolationmode sample-hold
attr source radioChannelChanged
attr title "Radio channel, histogram"
bin	-inf	0
bin	-0.5	0
bin	-0.48	0
bin	-0.46	0
bin	-0.44	0
bin	-0.42	0
bin	-0.4	0
bin	-0.38	0
bin	-0.36	0
bin	-0.34	0
bin	-0.32	0
bin	-0.3	0
bin	-0.28	0
bin	-0.26	0
bin	-0.24	0
bin	-0.22	0
bin	-0.2	0
bin	-0.18	0
bin	-0.16	0
bin	-0.14	0
bin	-0.12	0
bin	-0.1	0
bin	-0.08	0
bin	-0.06	0
bin	-0.04	0
bin	-0.02	0
bin	0	1
bin	0.02	0
bin	0.04	0
bin	0.06	0
bin	0.08	0
bin	0.1	0
bin	0.12	0
bin	0.14	0
bin	0.16	0
bin	0.18	0
bin	0.2	0
bin	0.22	0
bin	0.24	0
bin	0.26	0
bin	0.28	0
bin	0.3	0
bin	0.32	0
bin	0.34	0
bin	0.36	0
bin	0.38	0
bin	0.4	0
bin	0.42	0
bin	0.44	0
bin	0.46	0
bin	0.48	0
bin	0.5	0
scalar org.mobileHost[9].networkLayer.arp sentReply:count 0
attr title "ARP replies sent, count"
scalar org.mobileHost[9].networkLayer.arp sentReq:count 0
attr title "ARP request sent, count"
scalar org.mobileHost[9].networkLayer.arp initiatedARPResolution:count 0
attr title "ARP initiated resolutions, count"
scalar org.mobileHost[9].networkLayer.arp failedARPResolution:count 0
attr title "ARP failed resolutions, count"
scalar org.mobileHost[9].networkLayer.arp completedARPResolution:count 0
attr title "ARP completed resolutions, count"
scalar org.mobileHost[9].lo0.lo droppedPkBitError:count 0
attr interpolationmode none
attr source dropPkBitError
attr title "packets dropped/bit error, count"
scalar org.mobileHost[9].lo0.lo droppedPkBitError:sum(packetBytes) 0
attr interpolationmode none
attr source dropPkBitError
attr title "packets dropped/bit error, sum(packetBytes)"
scalar org.mobileHost[9].lo0.lo rcvdPkFromHL:count 0
attr interpolationmode none
attr source packetReceivedFromUpper
attr title "packets received from higher layer, count"
scalar org.mobileHost[9].lo0.lo rcvdPkFromHL:sum(packetBytes) 0
attr interpolationmode none
attr source packetReceivedFromUpper
attr title "packets received from higher layer, sum(packetBytes)"
scalar org.mobileHost[9].lo0.lo passedUpPk:count 0
attr interpolationmode none
attr source packetSentToUpper
attr title "packets passed to higher layer, count"
scalar org.mobileHost[9].lo0.lo passedUpPk:sum(packetBytes) 0
attr interpolationmode none
attr source packetSentToUpper
attr title "packets passed to higher layer, sum(packetBytes)"
scalar org.mobileHost[9].wlan[0].mac.statistics numReceivedUnicast 0
scalar org.mobileHost[9].wlan[0].mac.statistics numReceivedBroadcast 0
scalar org.mobileHost[9].wlan[0].mac.statistics numReceivedMulticast 0
scalar org.mobileHost[9].wlan[0].mac.statistics numReceivedNotForUs 0
scalar org.mobileHost[9].wlan[0].mac.statistics numReceivedErroneous 0
scalar org.mobileHost[9].wlan[0].mac rcvdPkFromHL:count 10
attr interpolationmode none
attr source packetReceivedFromUpper
attr title "packets received from higher layer, count"
scalar org.mobileHost[9].wlan[0].mac rcvdPkFromHL:sum(packetBytes) 10640
attr interpolationmode none
attr source packetReceivedFromUpper
attr title "packets received from higher layer, sum(packetBytes)"
scalar org.mobileHost[9].wlan[0].mac passedUpPk:count 0
attr interpolationmode none
attr source packetSentToUpper
attr title "packets passed to higher layer, count"
scalar org.mobileHost[9].wlan[0].mac passedUpPk:sum(packetBytes) 0
attr interpolationmode none
attr source packetSentToUpper
attr title "packets passed to higher layer, sum(packetBytes)"
scalar org.mobileHost[9].wlan[0].mac rcvdPkFromLL:count 39
attr interpolationmode none
attr source packetReceivedFromLower
attr title "packets received from lower layer, count"
scalar org.mobileHost[9].wlan[0].mac rcvdPkFromLL:sum(packetBytes) 41496
attr interpolationmode none
attr source packetReceivedFromLower
attr title "packets received from lower layer, sum(packetBytes)"
scalar org.mobileHost[9].wlan[0].mac sentDownPk:count 10
attr interpolationmode none
attr source packetSentToLower
attr title "packets sent to lower layer, count"
scalar org.mobileHost[9].wlan[0].mac sentDownPk:sum(packetBytes) 10640
attr interpolationmode none
attr source packetSentToLower
attr title "packets sent to lower layer, sum(packetBytes)"
statistic org.mobileHost[9].wlan[0].radio symbolErrorRate:histogram
field count 0
field mean nan
field stddev nan
field min nan
field max nan
field sum 0
field sqrsum 0
attr source symbolErrorRate
attr title "Symbol error rate, histogram"
bin	-inf	0
bin	0	0
bin	1	0
statistic org.mobileHost[9].wlan[0].radio bitErrorRate:histogram
field count 0
field mean nan
field stddev nan
field min nan
field max nan
field sum 0
field sqrsum 0
attr source bitErrorRate
attr title "Bit error rate, histogram"
bin	-inf	0
bin	0	0
bin	1	0
statistic org.mobileHost[9].wlan[0].radio packetErrorRate:histogram
field count 39
field mean 1
field stddev 0
field min 1
field max 1
field sum 39
field sqrsum 39
attr source packetErrorRate
attr title "Packet error rate, histogram"
bin	-inf	0
bin	0	0
bin	1	39
bin	2	0
statistic org.mobileHost[9].wlan[0].radio minSNIR:histogram
field count 39
field mean 3.1944123299655
field stddev 6.6989837521197e-008
field min 3.1944123299655
field max 3.1944123299655
field sum 124.58208086865
field sqrsum 397.96653521958
attr source minSNIR
attr title "Min SNIR, histogram"
bin	-inf	0
bin	2.68	0
bin	2.7	0
bin	2.72	0
bin	2.74	0
bin	2.76	0
bin	2.78	0
bin	2.8	0
bin	2.82	0
bin	2.84	0
bin	2.86	0
bin	2.88	0
bin	2.9	0
bin	2.92	0
bin	2.94	0
bin	2.96	0
bin	2.98	0
bin	3	0
bin	3.02	0
bin	3.04	0
bin	3.06	0
bin	3.08	0
bin	3.1	0
bin	3.12	0
bin	3.14	0
bin	3.16	0
bin	3.18	39
bin	3.2	0
bin	3.22	0
bin	3.24	0
bin	3.26	0
bin	3.28	0
bin	3.3	0
bin	3.32	0
bin	3.34	0
bin	3.36	0
bin	3.38	0
bin	3.4	0
bin	3.42	0
bin	3.44	0
bin	3.46	0
bin	3.48	0
bin	3.5	0
bin	3.52	0
bin	3.54	0
bin	3.56	0
bin	3.58	0
bin	3.6	0
bin	3.62	0
bin	3.64	0
bin	3.66	0
bin	3.68	0
bin	3.7	0
scalar org.mobileHost[9].wlan[0].radio transmissionState:count 40
attr interpolationmode sample-hold
attr source transmissionStateChanged
attr title "Radio transmission state, count"
scalar org.mobileHost[9].wlan[0].radio receptionState:count 99
attr interpolationmode sample-hold
attr source receptionStateChanged
attr title "Radio reception state, count"
scalar org.mobileHost[9].wlan[0].radio radioMode:count 22
attr interpolationmode sample-hold
attr source radioModeChanged
attr title "Radio mode, count"
statistic org.mobileHost[9].wlan[0].radio radioChannel:histogram
field count 1
field mean 0
field stddev nan
field min 0
field max 0
field sum 0
field sqrsum 0
attr interpolationmode sample-hold
attr source radioChannelChanged
attr title "Radio channel, histogram"
bin	-inf	0
bin	-0.5	0
bin	-0.48	0
bin	-0.46	0
bin	-0.44	0
bin	-0.42	0
bin	-0.4	0
bin	-0.38	0
bin	-0.36	0
bin	-0.34	0
bin	-0.32	0
bin	-0.3	0
bin	-0.28	0
bin	-0.26	0
bin	-0.24	0
bin	-0.22	0
bin	-0.2	0
bin	-0.18	0
bin	-0.16	0
bin	-0.14	0
bin	-0.12	0
bin	-0.1	0
bin	-0.08	0
bin	-0.06	0
bin	-0.04	0
bin	-0.02	0
bin	0	1
bin	0.02	0
bin	0.04	0
bin	0.06	0
bin	0.08	0
bin	0.1	0
bin	0.12	0
bin	0.14	0
bin	0.16	0
bin	0.18	0
bin	0.2	0
bin	0.22	0
bin	0.24	0
bin	0.26	0
bin	0.28	0
bin	0.3	0
bin	0.32	0
bin	0.34	0
bin	0.36	0
bin	0.38	0
bin	0.4	0
bin	0.42	0
bin	0.44	0
bin	0.46	0
bin	0.48	0
bin	0.5	0
scalar org.mobileHost[10].networkLayer.arp sentReply:count 0
attr title "ARP replies sent, count"
scalar org.mobileHost[10].networkLayer.arp sentReq:count 0
attr title "ARP request sent, count"
scalar org.mobileHost[10].networkLayer.arp initiatedARPResolution:count 0
attr title "ARP initiated resolutions, count"
scalar org.mobileHost[10].networkLayer.arp failedARPResolution:count 0
attr title "ARP failed resolutions, count"
scalar org.mobileHost[10].networkLayer.arp completedARPResolution:count 0
attr title "ARP completed resolutions, count"
scalar org.mobileHost[10].lo0.lo droppedPkBitError:count 0
attr interpolationmode none
attr source dropPkBitError
attr title "packets dropped/bit error, count"
scalar org.mobileHost[10].lo0.lo droppedPkBitError:sum(packetBytes) 0
attr interpolationmode none
attr source dropPkBitError
attr title "packets dropped/bit error, sum(packetBytes)"
scalar org.mobileHost[10].lo0.lo rcvdPkFromHL:count 0
attr interpolationmode none
attr source packetReceivedFromUpper
attr title "packets received from higher layer, count"
scalar org.mobileHost[10].lo0.lo rcvdPkFromHL:sum(packetBytes) 0
attr interpolationmode none
attr source packetReceivedFromUpper
attr title "packets received from higher layer, sum(packetBytes)"
scalar org.mobileHost[10].lo0.lo passedUpPk:count 0
attr interpolationmode none
attr source packetSentToUpper
attr title "packets passed to higher layer, count"
scalar org.mobileHost[10].lo0.lo passedUpPk:sum(packetBytes) 0
attr interpolationmode none
attr source packetSentToUpper
attr title "packets passed to higher layer, sum(packetBytes)"
scalar org.mobileHost[10].wlan[0].mac.statistics numReceivedUnicast 0
scalar org.mobileHost[10].wlan[0].mac.statistics numReceivedBroadcast 0
scalar org.mobileHost[10].wlan[0].mac.statistics numReceivedMulticast 0
scalar org.mobileHost[10].wlan[0].mac.statistics numReceivedNotForUs 0
scalar org.mobileHost[10].wlan[0].mac.statistics numReceivedErroneous 0
scalar org.mobileHost[10].wlan[0].mac rcvdPkFromHL:count 10
attr interpolationmode none
attr source packetReceivedFromUpper
attr title "packets received from higher layer, count"
scalar org.mobileHost[10].wlan[0].mac rcvdPkFromHL:sum(packetBytes) 10640
attr interpolationmode none
attr source packetReceivedFromUpper
attr title "packets received from higher layer, sum(packetBytes)"
scalar org.mobileHost[10].wlan[0].mac passedUpPk:count 0
attr interpolationmode none
attr source packetSentToUpper
attr title "packets passed to higher layer, count"
scalar org.mobileHost[10].wlan[0].mac passedUpPk:sum(packetBytes) 0
attr interpolationmode none
attr source packetSentToUpper
attr title "packets passed to higher layer, sum(packetBytes)"
scalar org.mobileHost[10].wlan[0].mac rcvdPkFromLL:count 40
attr interpolationmode none
attr source packetReceivedFromLower
attr title "packets received from lower layer, count"
scalar org.mobileHost[10].wlan[0].mac rcvdPkFromLL:sum(packetBytes) 42560
attr interpolationmode none
attr source packetReceivedFromLower
attr title "packets received from lower layer, sum(packetBytes)"
scalar org.mobileHost[10].wlan[0].mac sentDownPk:count 10
attr interpolationmode none
attr source packetSentToLower
attr title "packets sent to lower layer, count"
scalar org.mobileHost[10].wlan[0].mac sentDownPk:sum(packetBytes) 10640
attr interpolationmode none
attr source packetSentToLower
attr title "packets sent to lower layer, sum(packetBytes)"
statistic org.mobileHost[10].wlan[0].radio symbolErrorRate:histogram
field count 0
field mean nan
field stddev nan
field min nan
field max nan
field sum 0
field sqrsum 0
attr source symbolErrorRate
attr title "Symbol error rate, histogram"
bin	-inf	0
bin	0	0
bin	1	0
statistic org.mobileHost[10].wlan[0].radio bitErrorRate:histogram
field count 0
field mean nan
field stddev nan
field min nan
field max nan
field sum 0
field sqrsum 0
attr source bitErrorRate
attr title "Bit error rate, histogram"
bin	-inf	0
bin	0	0
bin	1	0
statistic org.mobileHost[10].wlan[0].radio packetErrorRate:histogram
field count 40
field mean 1
field stddev 0
field min 1
field max 1
field sum 40
field sqrsum 40
attr source packetErrorRate
attr title "Packet error rate, histogram"
bin	-inf	0
bin	0	0
bin	1	40
bin	2	0
statistic org.mobileHost[10].wlan[0].radio minSNIR:histogram
field count 40
field mean 3.1632805363635
field stddev 0.19689475085695
field min 1.9491405858869
field max 3.1944123299655
field sum 126.53122145454
field sqrsum 401.76568424313
attr source minSNIR
attr title "Min SNIR, histogram"
bin	-inf	0
bin	1.62	0
bin	1.64	0
bin	1.66	0
bin	1.68	0
bin	1.7	0
bin	1.72	0
bin	1.74	0
bin	1.76	0
bin	1.78	0
bin	1.8	0
bin	1.82	0
bin	1.84	0
bin	1.86	0
bin	1.88	0
bin	1.9	0
bin	1.92	0
bin	1.94	1
bin	1.96	0
bin	1.98	0
bin	2	0
bin	2.02	0
bin	2.04	0
bin	2.06	0
bin	2.08	0
bin	2.1	0
bin	2.12	0
bin	2.14	0
bin	2.16	0
bin	2.18	0
bin	2.2	0
bin	2.22	0
bin	2.24	0
bin	2.26	0
bin	2.28	0
bin	2.3	0
bin	2.32	0
bin	2.34	0
bin	2.36	0
bin	2.38	0
bin	2.4	0
bin	2.42	0
bin	2.44	0
bin	2.46	0
bin	2.48	0
bin	2.5	0
bin	2.52	0
bin	2.54	0
bin	2.56	0
bin	2.58	0
bin	2.6	0
bin	2.62	0
bin	2.64	0
bin	2.66	0
bin	2.68	0
bin	2.7	0
bin	2.72	0
bin	2.74	0
bin	2.76	0
bin	2.78	0
bin	2.8	0
bin	2.82	0
bin	2.84	0
bin	2.86	0
bin	2.88	0
bin	2.9	0
bin	2.92	0
bin	2.94	0
bin	2.96	0
bin	2.98	0
bin	3	0
bin	3.02	0
bin	3.04	0
bin	3.06	0
bin	3.08	0
bin	3.1	0
bin	3.12	0
bin	3.14	0
bin	3.16	0
bin	3.18	39
bin	3.2	0
bin	3.22	0
bin	3.24	0
bin	3.26	0
bin	3.28	0
bin	3.3	0
bin	3.32	0
bin	3.34	0
bin	3.36	0
bin	3.38	0
bin	3.4	0
bin	3.42	0
bin	3.44	0
bin	3.46	0
bin	3.48	0
bin	3.5	0
bin	3.52	0
scalar org.mobileHost[10].wlan[0].radio transmissionState:count 40
attr interpolationmode sample-hold
attr source transmissionStateChanged
attr title "Radio transmission state, count"
scalar org.mobileHost[10].wlan[0].radio receptionState:count 101
attr interpolationmode sample-hold
attr source receptionStateChanged
attr title "Radio reception state, count"
scalar org.mobileHost[10].wlan[0].radio radioMode:count 22
attr interpolationmode sample-hold
attr source radioModeChanged
attr title "Radio mode, count"
statistic org.mobileHost[10].wlan[0].radio radioChannel:histogram
field count 1
field mean 0
field stddev nan
field min 0
field max 0
field sum 0
field sqrsum 0
attr interpolationmode sample-hold
attr source radioChannelChanged
attr title "Radio channel, histogram"
bin	-inf	0
bin	-0.5	0
bin	-0.48	0
bin	-0.46	0
bin	-0.44	0
bin	-0.42	0
bin	-0.4	0
bin	-0.38	0
bin	-0.36	0
bin	-0.34	0
bin	-0.32	0
bin	-0.3	0
bin	-0.28	0
bin	-0.26	0
bin	-0.24	0
bin	-0.22	0
bin	-0.2	0
bin	-0.18	0
bin	-0.16	0
bin	-0.14	0
bin	-0.12	0
bin	-0.1	0
bin	-0.08	0
bin	-0.06	0
bin	-0.04	0
bin	-0.02	0
bin	0	1
bin	0.02	0
bin	0.04	0
bin	0.06	0
bin	0.08	0
bin	0.1	0
bin	0.12	0
bin	0.14	0
bin	0.16	0
bin	0.18	0
bin	0.2	0
bin	0.22	0
bin	0.24	0
bin	0.26	0
bin	0.28	0
bin	0.3	0
bin	0.32	0
bin	0.34	0
bin	0.36	0
bin	0.38	0
bin	0.4	0
bin	0.42	0
bin	0.44	0
bin	0.46	0
bin	0.48	0
bin	0.5	0
scalar org.mobileHost[11].networkLayer.arp sentReply:count 0
attr title "ARP replies sent, count"
scalar org.mobileHost[11].networkLayer.arp sentReq:count 0
attr title "ARP request sent, count"
scalar org.mobileHost[11].networkLayer.arp initiatedARPResolution:count 0
attr title "ARP initiated resolutions, count"
scalar org.mobileHost[11].networkLayer.arp failedARPResolution:count 0
attr title "ARP failed resolutions, count"
scalar org.mobileHost[11].networkLayer.arp completedARPResolution:count 0
attr title "ARP completed resolutions, count"
scalar org.mobileHost[11].lo0.lo droppedPkBitError:count 0
attr interpolationmode none
attr source dropPkBitError
attr title "packets dropped/bit error, count"
scalar org.mobileHost[11].lo0.lo droppedPkBitError:sum(packetBytes) 0
attr interpolationmode none
attr source dropPkBitError
attr title "packets dropped/bit error, sum(packetBytes)"
scalar org.mobileHost[11].lo0.lo rcvdPkFromHL:count 0
attr interpolationmode none
attr source packetReceivedFromUpper
attr title "packets received from higher layer, count"
scalar org.mobileHost[11].lo0.lo rcvdPkFromHL:sum(packetBytes) 0
attr interpolationmode none
attr source packetReceivedFromUpper
attr title "packets received from higher layer, sum(packetBytes)"
scalar org.mobileHost[11].lo0.lo passedUpPk:count 0
attr interpolationmode none
attr source packetSentToUpper
attr title "packets passed to higher layer, count"
scalar org.mobileHost[11].lo0.lo passedUpPk:sum(packetBytes) 0
attr interpolationmode none
attr source packetSentToUpper
attr title "packets passed to higher layer, sum(packetBytes)"
scalar org.mobileHost[11].wlan[0].mac.statistics numReceivedUnicast 0
scalar org.mobileHost[11].wlan[0].mac.statistics numReceivedBroadcast 0
scalar org.mobileHost[11].wlan[0].mac.statistics numReceivedMulticast 0
scalar org.mobileHost[11].wlan[0].mac.statistics numReceivedNotForUs 0
scalar org.mobileHost[11].wlan[0].mac.statistics numReceivedErroneous 0
scalar org.mobileHost[11].wlan[0].mac rcvdPkFromHL:count 10
attr interpolationmode none
attr source packetReceivedFromUpper
attr title "packets received from higher layer, count"
scalar org.mobileHost[11].wlan[0].mac rcvdPkFromHL:sum(packetBytes) 10640
attr interpolationmode none
attr source packetReceivedFromUpper
attr title "packets received from higher layer, sum(packetBytes)"
scalar org.mobileHost[11].wlan[0].mac passedUpPk:count 0
attr interpolationmode none
attr source packetSentToUpper
attr title "packets passed to higher layer, count"
scalar org.mobileHost[11].wlan[0].mac passedUpPk:sum(packetBytes) 0
attr interpolationmode none
[...]
bin	-0.42	0
bin	-0.4	0
bin	-0.38	0
bin	-0.36	0
bin	-0.34	0
bin	-0.32	0
bin	-0.3	0
bin	-0.28	0
bin	-0.26	0
bin	-0.24	0
bin	-0.22	0
bin	-0.2	0
bin	-0.18	0
bin	-0.16	0
bin	-0.14	0
bin	-0.12	0
bin	-0.1	0
bin	-0.08	0
bin	-0.06	0
bin	-0.04	0
bin	-0.02	0
bin	0	1
bin	0.02	0
bin	0.04	0
bin	0.06	0
bin	0.08	0
bin	0.1	0
bin	0.12	0
bin	0.14	0
bin	0.16	0
bin	0.18	0
bin	0.2	0
bin	0.22	0
bin	0.24	0
bin	0.26	0
bin	0.28	0
bin	0.3	0
bin	0.32	0
bin	0.34	0
bin	0.36	0
bin	0.38	0
bin	0.4	0
bin	0.42	0
bin	0.44	0
bin	0.46	0
bin	0.48	0
bin	0.5	0
scalar org.mobileHost[13].networkLayer.arp sentReply:count 0
attr title "ARP replies sent, count"
scalar org.mobileHost[13].networkLayer.arp sentReq:count 0
attr title "ARP request sent, count"
scalar org.mobileHost[13].networkLayer.arp initiatedARPResolution:count 0
attr title "ARP initiated resolutions, count"
scalar org.mobileHost[13].networkLayer.arp failedARPResolution:count 0
attr title "ARP failed resolutions, count"
scalar org.mobileHost[13].networkLayer.arp completedARPResolution:count 0
attr title "ARP completed resolutions, count"
scalar org.mobileHost[13].lo0.lo droppedPkBitError:count 0
attr interpolationmode none
attr source dropPkBitError
attr title "packets dropped/bit error, count"
scalar org.mobileHost[13].lo0.lo droppedPkBitError:sum(packetBytes) 0
attr interpolationmode none
attr source dropPkBitError
attr title "packets dropped/bit error, sum(packetBytes)"
scalar org.mobileHost[13].lo0.lo rcvdPkFromHL:count 0
attr interpolationmode none
attr source packetReceivedFromUpper
attr title "packets received from higher layer, count"
scalar org.mobileHost[13].lo0.lo rcvdPkFromHL:sum(packetBytes) 0
attr interpolationmode none
attr source packetReceivedFromUpper
attr title "packets received from higher layer, sum(packetBytes)"
scalar org.mobileHost[13].lo0.lo passedUpPk:count 0
attr interpolationmode none
attr source packetSentToUpper
attr title "packets passed to higher layer, count"
scalar org.mobileHost[13].lo0.lo passedUpPk:sum(packetBytes) 0
attr interpolationmode none
attr source packetSentToUpper
attr title "packets passed to higher layer, sum(packetBytes)"
scalar org.mobileHost[13].wlan[0].mac.statistics numReceivedUnicast 0
scalar org.mobileHost[13].wlan[0].mac.statistics numReceivedBroadcast 0
scalar org.mobileHost[13].wlan[0].mac.statistics numReceivedMulticast 0
scalar org.mobileHost[13].wlan[0].mac.statistics numReceivedNotForUs 0
scalar org.mobileHost[13].wlan[0].mac.statistics numReceivedErroneous 0
scalar org.mobileHost[13].wlan[0].mac rcvdPkFromHL:count 12
attr interpolationmode none
attr source packetReceivedFromUpper
attr title "packets received from higher layer, count"
scalar org.mobileHost[13].wlan[0].mac rcvdPkFromHL:sum(packetBytes) 12768
attr interpolationmode none
attr source packetReceivedFromUpper
attr title "packets received from higher layer, sum(packetBytes)"
scalar org.mobileHost[13].wlan[0].mac passedUpPk:count 0
attr interpolationmode none
attr source packetSentToUpper
attr title "packets passed to higher layer, count"
scalar org.mobileHost[13].wlan[0].mac passedUpPk:sum(packetBytes) 0
attr interpolationmode none
attr source packetSentToUpper
attr title "packets passed to higher layer, sum(packetBytes)"
scalar org.mobileHost[13].wlan[0].mac rcvdPkFromLL:count 30
attr interpolationmode none
attr source packetReceivedFromLower
attr title "packets received from lower layer, count"
scalar org.mobileHost[13].wlan[0].mac rcvdPkFromLL:sum(packetBytes) 31920
attr interpolationmode none
attr source packetReceivedFromLower
attr title "packets received from lower layer, sum(packetBytes)"
scalar org.mobileHost[13].wlan[0].mac sentDownPk:count 11
attr interpolationmode none
attr source packetSentToLower
attr title "packets sent to lower layer, count"
scalar org.mobileHost[13].wlan[0].mac sentDownPk:sum(packetBytes) 11704
attr interpolationmode none
attr source packetSentToLower
attr title "packets sent to lower layer, sum(packetBytes)"
statistic org.mobileHost[13].wlan[0].radio symbolErrorRate:histogram
field count 0
field mean nan
field stddev nan
field min nan
field max nan
field sum 0
field sqrsum 0
attr source symbolErrorRate
attr title "Symbol error rate, histogram"
bin	-inf	0
bin	0	0
bin	1	0
statistic org.mobileHost[13].wlan[0].radio bitErrorRate:histogram
field count 0
field mean nan
field stddev nan
field min nan
field max nan
field sum 0
field sqrsum 0
attr source bitErrorRate
attr title "Bit error rate, histogram"
bin	-inf	0
bin	0	0
bin	1	0
statistic org.mobileHost[13].wlan[0].radio packetErrorRate:histogram
field count 30
field mean 1
field stddev 0
field min 1
field max 1
field sum 30
field sqrsum 30
attr source packetErrorRate
attr title "Packet error rate, histogram"
bin	-inf	0
bin	0	0
bin	1	30
bin	2	0
statistic org.mobileHost[13].wlan[0].radio minSNIR:histogram
field count 30
field mean 3.1734086448138
field stddev 0.11504192148295
field min 2.5643017754161
field max 3.1944123299655
field sum 95.202259344415
field sqrsum 302.49947747663
attr source minSNIR
attr title "Min SNIR, histogram"
bin	-inf	0
bin	2.4	0
bin	2.42	0
bin	2.44	0
bin	2.46	0
bin	2.48	0
bin	2.5	0
bin	2.52	0
bin	2.54	0
bin	2.56	1
bin	2.58	0
bin	2.6	0
bin	2.62	0
bin	2.64	0
bin	2.66	0
bin	2.68	0
bin	2.7	0
bin	2.72	0
bin	2.74	0
bin	2.76	0
bin	2.78	0
bin	2.8	0
bin	2.82	0
bin	2.84	0
bin	2.86	0
bin	2.88	0
bin	2.9	0
bin	2.92	0
bin	2.94	0
bin	2.96	0
bin	2.98	0
bin	3	0
bin	3.02	0
bin	3.04	0
bin	3.06	0
bin	3.08	0
bin	3.1	0
bin	3.12	0
bin	3.14	0
bin	3.16	0
bin	3.18	29
bin	3.2	0
bin	3.22	0
bin	3.24	0
bin	3.26	0
bin	3.28	0
bin	3.3	0
bin	3.32	0
bin	3.34	0
bin	3.36	0
scalar org.mobileHost[13].wlan[0].radio transmissionState:count 44
attr interpolationmode sample-hold
attr source transmissionStateChanged
attr title "Radio transmission state, count"
scalar org.mobileHost[13].wlan[0].radio receptionState:count 83
attr interpolationmode sample-hold
attr source receptionStateChanged
attr title "Radio reception state, count"
scalar org.mobileHost[13].wlan[0].radio radioMode:count 24
attr interpolationmode sample-hold
attr source radioModeChanged
attr title "Radio mode, count"
statistic org.mobileHost[13].wlan[0].radio radioChannel:histogram
field count 1
field mean 0
field stddev nan
field min 0
field max 0
field sum 0
field sqrsum 0
attr interpolationmode sample-hold
attr source radioChannelChanged
attr title "Radio channel, histogram"
bin	-inf	0
bin	-0.5	0
bin	-0.48	0
bin	-0.46	0
bin	-0.44	0
bin	-0.42	0
bin	-0.4	0
bin	-0.38	0
bin	-0.36	0
bin	-0.34	0
bin	-0.32	0
bin	-0.3	0
bin	-0.28	0
bin	-0.26	0
bin	-0.24	0
bin	-0.22	0
bin	-0.2	0
bin	-0.18	0
bin	-0.16	0
bin	-0.14	0
bin	-0.12	0
bin	-0.1	0
bin	-0.08	0
bin	-0.06	0
bin	-0.04	0
bin	-0.02	0
bin	0	1
bin	0.02	0
bin	0.04	0
bin	0.06	0
bin	0.08	0
bin	0.1	0
bin	0.12	0
bin	0.14	0
bin	0.16	0
bin	0.18	0
bin	0.2	0
bin	0.22	0
bin	0.24	0
bin	0.26	0
bin	0.28	0
bin	0.3	0
bin	0.32	0
bin	0.34	0
bin	0.36	0
bin	0.38	0
bin	0.4	0
bin	0.42	0
bin	0.44	0
bin	0.46	0
bin	0.48	0
bin	0.5	0
scalar org.mobileHost[14].networkLayer.arp sentReply:count 0
attr title "ARP replies sent, count"
scalar org.mobileHost[14].networkLayer.arp sentReq:count 0
attr title "ARP request sent, count"
scalar org.mobileHost[14].networkLayer.arp initiatedARPResolution:count 0
attr title "ARP initiated resolutions, count"
scalar org.mobileHost[14].networkLayer.arp failedARPResolution:count 0
attr title "ARP failed resolutions, count"
scalar org.mobileHost[14].networkLayer.arp completedARPResolution:count 0
attr title "ARP completed resolutions, count"
scalar org.mobileHost[14].lo0.lo droppedPkBitError:count 0
attr interpolationmode none
attr source dropPkBitError
attr title "packets dropped/bit error, count"
scalar org.mobileHost[14].lo0.lo droppedPkBitError:sum(packetBytes) 0
attr interpolationmode none
attr source dropPkBitError
attr title "packets dropped/bit error, sum(packetBytes)"
scalar org.mobileHost[14].lo0.lo rcvdPkFromHL:count 0
attr interpolationmode none
attr source packetReceivedFromUpper
attr title "packets received from higher layer, count"
scalar org.mobileHost[14].lo0.lo rcvdPkFromHL:sum(packetBytes) 0
attr interpolationmode none
attr source packetReceivedFromUpper
attr title "packets received from higher layer, sum(packetBytes)"
scalar org.mobileHost[14].lo0.lo passedUpPk:count 0
attr interpolationmode none
attr source packetSentToUpper
attr title "packets passed to higher layer, count"
scalar org.mobileHost[14].lo0.lo passedUpPk:sum(packetBytes) 0
attr interpolationmode none
attr source packetSentToUpper
attr title "packets passed to higher layer, sum(packetBytes)"
scalar org.mobileHost[14].wlan[0].mac.statistics numReceivedUnicast 0
scalar org.mobileHost[14].wlan[0].mac.statistics numReceivedBroadcast 0
scalar org.mobileHost[14].wlan[0].mac.statistics numReceivedMulticast 0
scalar org.mobileHost[14].wlan[0].mac.statistics numReceivedNotForUs 0
scalar org.mobileHost[14].wlan[0].mac.statistics numReceivedErroneous 0
scalar org.mobileHost[14].wlan[0].mac rcvdPkFromHL:count 10
attr interpolationmode none
attr source packetReceivedFromUpper
attr title "packets received from higher layer, count"
scalar org.mobileHost[14].wlan[0].mac rcvdPkFromHL:sum(packetBytes) 10640
attr interpolationmode none
attr source packetReceivedFromUpper
attr title "packets received from higher layer, sum(packetBytes)"
scalar org.mobileHost[14].wlan[0].mac passedUpPk:count 0
attr interpolationmode none
attr source packetSentToUpper
attr title "packets passed to higher layer, count"
scalar org.mobileHost[14].wlan[0].mac passedUpPk:sum(packetBytes) 0
attr interpolationmode none
attr source packetSentToUpper
attr title "packets passed to higher layer, sum(packetBytes)"
scalar org.mobileHost[14].wlan[0].mac rcvdPkFromLL:count 31
attr interpolationmode none
attr source packetReceivedFromLower
attr title "packets received from lower layer, count"
scalar org.mobileHost[14].wlan[0].mac rcvdPkFromLL:sum(packetBytes) 32984
attr interpolationmode none
attr source packetReceivedFromLower
attr title "packets received from lower layer, sum(packetBytes)"
scalar org.mobileHost[14].wlan[0].mac sentDownPk:count 10
attr interpolationmode none
attr source packetSentToLower
attr title "packets sent to lower layer, count"
scalar org.mobileHost[14].wlan[0].mac sentDownPk:sum(packetBytes) 10640
attr interpolationmode none
attr source packetSentToLower
attr title "packets sent to lower layer, sum(packetBytes)"
statistic org.mobileHost[14].wlan[0].radio symbolErrorRate:histogram
field count 0
field mean nan
field stddev nan
field min nan
field max nan
field sum 0
field sqrsum 0
attr source symbolErrorRate
attr title "Symbol error rate, histogram"
bin	-inf	0
bin	0	0
bin	1	0
statistic org.mobileHost[14].wlan[0].radio bitErrorRate:histogram
field count 0
field mean nan
field stddev nan
field min nan
field max nan
field sum 0
field sqrsum 0
attr source bitErrorRate
attr title "Bit error rate, histogram"
bin	-inf	0
bin	0	0
bin	1	0
statistic org.mobileHost[14].wlan[0].radio packetErrorRate:histogram
field count 31
field mean 1
field stddev 0
field min 1
field max 1
field sum 31
field sqrsum 31
attr source packetErrorRate
attr title "Packet error rate, histogram"
bin	-inf	0
bin	0	0
bin	1	31
bin	2	0
statistic org.mobileHost[14].wlan[0].radio minSNIR:histogram
field count 31
field mean 3.1944123299655
field stddev 6.1559412419119e-008
field min 3.1944123299655
field max 3.1944123299655
field sum 99.02678222893
field sqrsum 316.3323741489
attr source minSNIR
attr title "Min SNIR, histogram"
bin	-inf	0
bin	2.68	0
bin	2.7	0
bin	2.72	0
bin	2.74	0
bin	2.76	0
bin	2.78	0
bin	2.8	0
bin	2.82	0
bin	2.84	0
bin	2.86	0
bin	2.88	0
bin	2.9	0
bin	2.92	0
bin	2.94	0
bin	2.96	0
bin	2.98	0
bin	3	0
bin	3.02	0
bin	3.04	0
bin	3.06	0
bin	3.08	0
bin	3.1	0
bin	3.12	0
bin	3.14	0
bin	3.16	0
bin	3.18	31
bin	3.2	0
bin	3.22	0
bin	3.24	0
bin	3.26	0
bin	3.28	0
bin	3.3	0
bin	3.32	0
bin	3.34	0
bin	3.36	0
bin	3.38	0
bin	3.4	0
bin	3.42	0
bin	3.44	0
bin	3.46	0
bin	3.48	0
bin	3.5	0
bin	3.52	0
bin	3.54	0
bin	3.56	0
bin	3.58	0
bin	3.6	0
bin	3.62	0
bin	3.64	0
bin	3.66	0
bin	3.68	0
bin	3.7	0
scalar org.mobileHost[14].wlan[0].radio transmissionState:count 40
attr interpolationmode sample-hold
attr source transmissionStateChanged
attr title "Radio transmission state, count"
scalar org.mobileHost[14].wlan[0].radio receptionState:count 83
attr interpolationmode sample-hold
attr source receptionStateChanged
attr title "Radio reception state, count"
scalar org.mobileHost[14].wlan[0].radio radioMode:count 22
attr interpolationmode sample-hold
attr source radioModeChanged
attr title "Radio mode, count"
statistic org.mobileHost[14].wlan[0].radio radioChannel:histogram
field count 1
field mean 0
field stddev nan
field min 0
field max 0
field sum 0
field sqrsum 0
attr interpolationmode sample-hold
attr source radioChannelChanged
attr title "Radio channel, histogram"
bin	-inf	0
bin	-0.5	0
bin	-0.48	0
bin	-0.46	0
bin	-0.44	0
bin	-0.42	0
bin	-0.4	0
bin	-0.38	0
bin	-0.36	0
bin	-0.34	0
bin	-0.32	0
bin	-0.3	0
bin	-0.28	0
bin	-0.26	0
bin	-0.24	0
bin	-0.22	0
bin	-0.2	0
bin	-0.18	0
bin	-0.16	0
bin	-0.14	0
bin	-0.12	0
bin	-0.1	0
bin	-0.08	0
bin	-0.06	0
bin	-0.04	0
bin	-0.02	0
bin	0	1
bin	0.02	0
bin	0.04	0
bin	0.06	0
bin	0.08	0
bin	0.1	0
bin	0.12	0
bin	0.14	0
bin	0.16	0
bin	0.18	0
bin	0.2	0
bin	0.22	0
bin	0.24	0
bin	0.26	0
bin	0.28	0
bin	0.3	0
bin	0.32	0
bin	0.34	0
bin	0.36	0
bin	0.38	0
bin	0.4	0
bin	0.42	0
bin	0.44	0
bin	0.46	0
bin	0.48	0
bin	0.5	0
scalar org.mobileHost[15].networkLayer.arp sentReply:count 0
attr title "ARP replies sent, count"
scalar org.mobileHost[15].networkLayer.arp sentReq:count 0
attr title "ARP request sent, count"
scalar org.mobileHost[15].networkLayer.arp initiatedARPResolution:count 0
attr title "ARP initiated resolutions, count"
scalar org.mobileHost[15].networkLayer.arp failedARPResolution:count 0
attr title "ARP failed resolutions, count"
scalar org.mobileHost[15].networkLayer.arp completedARPResolution:count 0
attr title "ARP completed resolutions, count"
scalar org.mobileHost[15].lo0.lo droppedPkBitError:count 0
attr interpolationmode none
attr source dropPkBitError
attr title "packets dropped/bit error, count"
scalar org.mobileHost[15].lo0.lo droppedPkBitError:sum(packetBytes) 0
attr interpolationmode none
attr source dropPkBitError
attr title "packets dropped/bit error, sum(packetBytes)"
scalar org.mobileHost[15].lo0.lo rcvdPkFromHL:count 0
attr interpolationmode none
attr source packetReceivedFromUpper
attr title "packets received from higher layer, count"
scalar org.mobileHost[15].lo0.lo rcvdPkFromHL:sum(packetBytes) 0
attr interpolationmode none
attr source packetReceivedFromUpper
attr title "packets received from higher layer, sum(packetBytes)"
scalar org.mobileHost[15].lo0.lo passedUpPk:count 0
attr interpolationmode none
attr source packetSentToUpper
attr title "packets passed to higher layer, count"
scalar org.mobileHost[15].lo0.lo passedUpPk:sum(packetBytes) 0
attr interpolationmode none
attr source packetSentToUpper
attr title "packets passed to higher layer, sum(packetBytes)"
scalar org.mobileHost[15].wlan[0].mac.statistics numReceivedUnicast 0
scalar org.mobileHost[15].wlan[0].mac.statistics numReceivedBroadcast 0
scalar org.mobileHost[15].wlan[0].mac.statistics numReceivedMulticast 0
scalar org.mobileHost[15].wlan[0].mac.statistics numReceivedNotForUs 0
scalar org.mobileHost[15].wlan[0].mac.statistics numReceivedErroneous 0
scalar org.mobileHost[15].wlan[0].mac rcvdPkFromHL:count 10
attr interpolationmode none
attr source packetReceivedFromUpper
attr title "packets received from higher layer, count"
scalar org.mobileHost[15].wlan[0].mac rcvdPkFromHL:sum(packetBytes) 10640
attr interpolationmode none
attr source packetReceivedFromUpper
attr title "packets received from higher layer, sum(packetBytes)"
scalar org.mobileHost[15].wlan[0].mac passedUpPk:count 0
attr interpolationmode none
attr source packetSentToUpper
attr title "packets passed to higher layer, count"
scalar org.mobileHost[15].wlan[0].mac passedUpPk:sum(packetBytes) 0
attr interpolationmode none
attr source packetSentToUpper
attr title "packets passed to higher layer, sum(packetBytes)"
scalar org.mobileHost[15].wlan[0].mac rcvdPkFromLL:count 20
attr interpolationmode none
attr source packetReceivedFromLower
attr title "packets received from lower layer, count"
scalar org.mobileHost[15].wlan[0].mac rcvdPkFromLL:sum(packetBytes) 21280
attr interpolationmode none
attr source packetReceivedFromLower
attr title "packets received from lower layer, sum(packetBytes)"
scalar org.mobileHost[15].wlan[0].mac sentDownPk:count 10
attr interpolationmode none
attr source packetSentToLower
attr title "packets sent to lower layer, count"
scalar org.mobileHost[15].wlan[0].mac sentDownPk:sum(packetBytes) 10640
attr interpolationmode none
attr source packetSentToLower
attr title "packets sent to lower layer, sum(packetBytes)"
statistic org.mobileHost[15].wlan[0].radio symbolErrorRate:histogram
field count 0
field mean nan
field stddev nan
field min nan
field max nan
field sum 0
field sqrsum 0
attr source symbolErrorRate
attr title "Symbol error rate, histogram"
bin	-inf	0
bin	0	0
bin	1	0
statistic org.mobileHost[15].wlan[0].radio bitErrorRate:histogram
field count 0
field mean nan
field stddev nan
field min nan
field max nan
field sum 0
field sqrsum 0
attr source bitErrorRate
attr title "Bit error rate, histogram"
bin	-inf	0
bin	0	0
bin	1	0
statistic org.mobileHost[15].wlan[0].radio packetErrorRate:histogram
field count 20
field mean 1
field stddev 0
field min 1
field max 1
field sum 20
field sqrsum 20
attr source packetErrorRate
attr title "Packet error rate, histogram"
bin	-inf	0
bin	0	0
bin	1	20
bin	2	0
statistic org.mobileHost[15].wlan[0].radio minSNIR:histogram
field count 20
field mean 3.1525723877948
field stddev 0.18711390973681
field min 2.3576134865509
field max 3.1944123299655
field sum 63.051447755895
field sqrsum 199.43947389484
attr source minSNIR
attr title "Min SNIR, histogram"
bin	-inf	0
bin	2.14	0
bin	2.16	0
bin	2.18	0
bin	2.2	0
bin	2.22	0
bin	2.24	0
bin	2.26	0
bin	2.28	0
bin	2.3	0
bin	2.32	0
bin	2.34	1
bin	2.36	0
bin	2.38	0
bin	2.4	0
bin	2.42	0
bin	2.44	0
bin	2.46	0
bin	2.48	0
bin	2.5	0
bin	2.52	0
bin	2.54	0
bin	2.56	0
bin	2.58	0
bin	2.6	0
bin	2.62	0
bin	2.64	0
bin	2.66	0
bin	2.68	0
bin	2.7	0
bin	2.72	0
bin	2.74	0
bin	2.76	0
bin	2.78	0
bin	2.8	0
bin	2.82	0
bin	2.84	0
bin	2.86	0
bin	2.88	0
bin	2.9	0
bin	2.92	0
bin	2.94	0
bin	2.96	0
bin	2.98	0
bin	3	0
bin	3.02	0
bin	3.04	0
bin	3.06	0
bin	3.08	0
bin	3.1	0
bin	3.12	0
bin	3.14	0
bin	3.16	0
bin	3.18	19
bin	3.2	0
bin	3.22	0
bin	3.24	0
bin	3.26	0
bin	3.28	0
bin	3.3	0
bin	3.32	0
bin	3.34	0
bin	3.36	0
bin	3.38	0
bin	3.4	0
bin	3.42	0
scalar org.mobileHost[15].wlan[0].radio transmissionState:count 40
attr interpolationmode sample-hold
attr source transmissionStateChanged
attr title "Radio transmission state, count"
scalar org.mobileHost[15].wlan[0].radio receptionState:count 61
attr interpolationmode sample-hold
attr source receptionStateChanged
attr title "Radio reception state, count"
scalar org.mobileHost[15].wlan[0].radio radioMode:count 22
attr interpolationmode sample-hold
attr source radioModeChanged
attr title "Radio mode, count"
statistic org.mobileHost[15].wlan[0].radio radioChannel:histogram
field count 1
field mean 0
field stddev nan
field min 0
field max 0
field sum 0
field sqrsum 0
attr interpolationmode sample-hold
attr source radioChannelChanged
attr title "Radio channel, histogram"
bin	-inf	0
bin	-0.5	0
bin	-0.48	0
bin	-0.46	0
bin	-0.44	0
bin	-0.42	0
bin	-0.4	0
bin	-0.38	0
bin	-0.36	0
bin	-0.34	0
bin	-0.32	0
bin	-0.3	0
bin	-0.28	0
bin	-0.26	0
bin	-0.24	0
bin	-0.22	0
bin	-0.2	0
bin	-0.18	0
bin	-0.16	0
bin	-0.14	0
bin	-0.12	0
bin	-0.1	0
bin	-0.08	0
bin	-0.06	0
bin	-0.04	0
bin	-0.02	0
bin	0	1
bin	0.02	0
bin	0.04	0
bin	0.06	0
bin	0.08	0
bin	0.1	0
bin	0.12	0
bin	0.14	0
bin	0.16	0
bin	0.18	0
bin	0.2	0
bin	0.22	0
bin	0.24	0
bin	0.26	0
bin	0.28	0
bin	0.3	0
bin	0.32	0
bin	0.34	0
bin	0.36	0
bin	0.38	0
bin	0.4	0
bin	0.42	0
bin	0.44	0
bin	0.46	0
bin	0.48	0
bin	0.5	0

